data/IEEE_Case1354/PowerGrid.m
function mpc = PowerGrid(num_zones)
% CASE1354PEGASE  Power flow data for medium part of European system.
%   Please see CASEFORMAT for details on the case file format.
%
%   This case accurately represents the size and complexity of part of the
%   European high voltage transmission network. The network contains 1,354
%   buses, 260 generators, and 1,991 branches and it operates at 380 and
%   220 kV. Please note that the data are fictitious and do not correspond
%   to real world data. They can thus be used to validate methods and tools
%   but should not be used for operation and planning of the European grid.
%
%   The data stems from the Pan European Grid Advanced Simulation and State
%   Estimation (PEGASE) project, part of the 7th Framework Program of the
%   European Union (https://www.fp7-pegase.com/).
%
%   When publishing results based on this data, please cite:
%
%     C. Josz, S. Fliscounakis, J. Maeght, and P. Panciatici, "AC Power Flow
%     Data in MATPOWER and QCQP Format: iTesla, RTE Snapshots, and PEGASE"
%     https://arxiv.org/abs/1603.01533
%
%     S. Fliscounakis, P. Panciatici, F. Capitanescu, and L. Wehenkel,
%     "Contingency ranking with respect to overloads in very large power
%     systems taking into account uncertainty, preventive and corrective
%     actions", Power Systems, IEEE Trans. on, (28)4:4909-4917, 2013.
%     https://doi.org/10.1109/TPWRS.2013.2251015
%
%   Remarks:
%
%   1. Line flow limits are 100 MVA (at 1 p.u. voltage) lower than the
%   current flow limits found in PEGASE data.
%
%   2. PEGASE data contains asymmetric shunt conductance and susceptance in
%   the PI transmission line model of branches. Thus total line charging
%   susceptance of branches is set to 0 p.u. and the nodal representation
%   of shunt condutance and susceptance is used. As a result, power flow
%   equations are left unchanged compared with original PEGASE data.
%   However, line flow constraints in the optimal flow problem are
%   modified.
%
%   3. Identical linear costs are used for all generators to form a loss
%   minimizing OPF objective function.
%
%   4. Since some parts of the network are aggregated, some generators
%   (e.g. with negative PMIN) represent aggregations of multiple loads
%   and generators.
%
%   Contacts:
%     Cédric Josz, Stéphane Fliscounakis, Jean Maeght, Patrick Panciatici
%     firstname.lastname@rte-france.com
%     Réseau de Transport d'Electricité (French Transmission System Operator)
%     Département Expertise Système, Immeuble "Le Colbert"
%     9 rue de la Porte de Buc, 78000 Versailles Cedex, France
%
%   March 18th, 2015

%   MATPOWER
%   Copyright (c) 2015, 2016 by Cédric Josz, Stéphane Fliscounakis, Jean Maeght,
%   and Patrick Panciatici
%   Licensed under the Creative Commons Attribution 4.0 International license,
%   https://creativecommons.org/licenses/by/4.0/

% MATPOWER Case Format : Version 2
mpc.version = '2';

%%-----  Power Flow Data  -----%%
% system MVA base
mpc.baseMVA = 100;

% bus data
%	bus_i	type	Pd	Qd	Gs	Bs	area	Vm	Va	baseKV	zone	Vmax	Vmin
mpc.bus = [
	1	1	0	0	0	4.69	0	1.016674	-21.761632	220	5	1.1	0.9	;
    2	1	0	0	0	2.1	0	1.026472	-7.007354	220	5	1.1	0.9	;
    3	1	0	0	0	12.44	0	1.038534	-24.281644	220	5	1.1	0.9	;
    4	1	0	0	0	30.71	0	1.036195	-21.958828	220	5	1.1	0.9	;
    5	1	0	0	0	0.85	0	1.035058	-18.483339	220	5	1.1	0.9	;
    6	1	0	0	0	110.54	0	1.032267	-3.318448	380	5	1.1	0.9	;
    7	1	0	0	0	27.65	0	0.994409	-13.816418	380	5	1.1	0.9	;
    8	1	0	0	0	7.27	0	1.045829	-22.181066	220	5	1.1	0.9	;
    9	1	0	0	0	7.14	0	1.063422	-9.070013	220	5	1.1	0.9	;
    10	1	0	0	0	2.31	0	0.983702	-21.159412	380	5	1.1	0.9	;
    11	1	0	0	0	3.31	0	1.036808	-23.631999	220	5	1.1	0.9	;
    12	1	0	0	0	3.95	0	1.042187	-27.546292	220	5	1.1	0.9	;
    13	1	0	0	0	3.49	0	1.030441	-15.689479	220	5	1.1	0.9	;
    14	1	0	0	0	6.532711	0	1.030718	-14.242909	380	5	1.1	0.9	;
    15	1	0	0	0	4.21	0	1.066797	-19.783678	220	5	1.1	0.9	;
    16	1	0	0	0	13.102834	0	1.020256	-11.430028	380	5	1.1	0.9	;
    17	2	0	0	0	0	0	1.081537	8.330657	220	5	1.1	0.9	;
    18	1	0	0	0	0.52	0	1.020482	-16.063366	220	5	1.1	0.9	;
    19	1	0	0	0	7.64	0	1.039096	-8.903623	220	5	1.1	0.9	;
    20	1	0	0	0	6.1	0	1.041568	-7.991267	220	5	1.1	0.9	;
    21	2	0	0	0	0	0	1.062805	2.531831	220	5	1.1	0.9	;
    22	1	0	0	0	8.34	0	1.047047	-10.672351	220	5	1.1	0.9	;
    23	1	0	0	0	5.24	0	1.069649	-25.153324	220	5	1.1	0.9	;
    24	1	0	0	0	9.91	0	1.074846	-27.942789	220	5	1.1	0.9	;
    25	1	0	0	0	2.42	0	1.042771	-11.94851	220	5	1.1	0.9	;
    26	1	0	0	0	3.3	0	1.018752	-19.550413	220	5	1.1	0.9	;
    27	1	0	0	0	8.52	0	1.056337	-8.791116	220	5	1.1	0.9	;
    28	1	0	0	0	12.48	0	1.074825	-26.319857	220	5	1.1	0.9	;
    29	1	0	0	0	1.44	0	1.01673	-16.306681	220	5	1.1	0.9	;
    30	1	0	0	0	1.34	0	1.026604	-13.457588	220	5	1.1	0.9	;
    31	1	0	0	0	2.21	0	1.039362	-24.590496	220	5	1.1	0.9	;
    32	1	0	0	0	7.36	0	1.042762	-2.603638	220	5	1.1	0.9	;
    33	1	0	0	0	2.23	0	1.045923	-13.114892	220	5	1.1	0.9	;
    34	2	0	0	0	0	0	0.984682	-21.807603	380	5	1.1	0.9	;
    35	1	0	0	0	1.15	0	1.063761	-20.174043	220	5	1.1	0.9	;
    36	1	0	0	0	5.34	0	1.035725	-11.193679	220	5	1.1	0.9	;
    37	1	0	0	0	1.17	0	1.035204	-12.094637	220	5	1.1	0.9	;
    38	1	0	0	0	0.7	0	1.047544	-14.765137	220	5	1.1	0.9	;
    39	1	0	0	0	0.63	0	1.067188	-32.434719	220	5	1.1	0.9	;
    40	1	0	0	0	4.76	0	1.030032	-18.823594	220	5	1.1	0.9	;
    41	1	0	0	0	10.6	0	1.005548	-16.020947	220	5	1.1	0.9	;
    42	1	0	0	0	6.85	0	1.014579	-42.137692	220	5	1.1	0.9	;
    43	2	0	0	0	0	0	1.048249	-6.162533	220	5	1.1	0.9	;
    44	1	0	0	0	0.71	0	1.040694	-21.298393	220	5	1.1	0.9	;
    45	1	0	0	0	5.62	0	1.043185	-24.295117	220	5	1.1	0.9	;
    46	2	0	0	0	0	0	1.055378	0.262953	380	5	1.1	0.9	;
    47	1	0	0	0	4.85	0	1.07164	-23.599251	220	5	1.1	0.9	;
    48	1	0	0	0	3.08	0	1.026548	-14.262083	220	5	1.1	0.9	;
    49	1	0	0	0	0.04	0	1.039791	-11.549917	220	5	1.1	0.9	;
    50	1	0	0	0	6.44	0	1.041564	-26.439994	220	5	1.1	0.9	;
    51	2	0	0	0	0	0	1.05013	-6.606455	220	5	1.1	0.9	;
    52	1	0	0	0	6.96	0	1.0458	-6.728632	220	5	1.1	0.9	;
    53	1	0	0	0	3.25	0	1.040489	-18.395441	220	5	1.1	0.9	;
    54	1	0	0	0	68.517663	0	1.047774	2.403578	380	5	1.1	0.9	;
    55	1	0	0	0	2.45	0	1.036267	-12.201434	220	5	1.1	0.9	;
    56	1	0	0	0	29.42	0	1.021739	-8.489958	380	5	1.1	0.9	;
    57	2	0	0	0	0	0	1.018914	-7.857046	380	5	1.1	0.9	;
    58	1	0	0	0	13.24	0	1.045882	-30.596498	220	5	1.1	0.9	;
    59	1	0	0	0	2.77	0	1.036451	-23.014287	220	5	1.1	0.9	;
    60	1	0	0	0	7.66	0	1.040423	-15.042452	220	5	1.1	0.9	;
    61	1	0	0	0	1.96	0	1.043564	-6.675538	220	5	1.1	0.9	;
    62	1	0	0	0	0.4	0	1.063297	-9.078728	380	5	1.1	0.9	;
    63	1	0	0	0	1.61	0	1.038461	-7.443414	220	5	1.1	0.9	;
    64	2	0	0	0	0	0	1.075592	-33.453515	220	5	1.1	0.9	;
    65	1	0	0	0	2.57	0	1.048239	-27.108761	220	5	1.1	0.9	;
    66	1	0	0	0	5.15	0	1.074517	-10.959606	220	5	1.1	0.9	;
    67	1	0	0	0	1.97	0	1.024071	-20.793083	220	5	1.1	0.9	;
    68	1	0	0	0	1.17	0	1.03694	-22.762979	220	5	1.1	0.9	;
    69	1	0	0	0	0.32	0	1.055451	-11.021763	220	5	1.1	0.9	;
    70	2	0	0	0	0	0	1.069817	-47.078276	220	5	1.1	0.9	;
    71	1	0	0	0	0.67	0	1.04436	-11.163788	220	5	1.1	0.9	;
    72	2	0	0	0	0	0	1.045397	-15.568574	220	5	1.1	0.9	;
    73	1	0	0	0	5.75	0	1.036683	-8.869667	220	5	1.1	0.9	;
    74	1	0	0	0	5.71	0	1.040685	-14.418335	220	5	1.1	0.9	;
    75	1	0	0	0	24.54	0	0.996939	-12.93567	380	5	1.1	0.9	;
    76	1	0	0	0	4.77	0	1.071753	-32.66829	220	5	1.1	0.9	;
    77	1	0	0	0	5.67	0	1.025344	-14.779536	220	5	1.1	0.9	;
    78	2	0	0	0	0	0	1.063876	-10.607341	220	5	1.1	0.9	;
    79	2	0	0	0	0	0	1.048713	-12.997468	220	5	1.1	0.9	;
    80	1	0	0	0	2.96	0	1.046742	-25.252227	220	5	1.1	0.9	;
    81	2	0	0	0	0	0	1.051376	-29.999643	220	5	1.1	0.9	;
    82	1	0	0	0	0.74	0	1.03515	-13.956622	220	5	1.1	0.9	;
    83	1	0	0	0	5.87	0	1.033849	-17.442414	220	5	1.1	0.9	;
    84	1	0	0	0	0.6	0	1.040021	2.414523	380	5	1.1	0.9	;
    85	1	0	0	0	150.93	0	1.03076	-5.413919	380	5	1.1	0.9	;
    86	1	0	0	0	0.09	0	0.986375	-18.62447	220	5	1.1	0.9	;
    87	2	0	0	0	0	0	1.0691	-10.045044	220	5	1.1	0.9	;
    88	1	0	0	0	5.6	0	1.05742	-4.068613	220	5	1.1	0.9	;
    89	1	0	0	0	5.36	0	1.054495	-25.620212	220	5	1.1	0.9	;
    90	1	0	0	0	5.31	0	1.031148	-24.884639	220	5	1.1	0.9	;
    91	1	0	0	0	23.554121	0	0.981824	-26.763103	380	5	1.1	0.9	;
    92	1	0	0	0	0.53	0	1.048069	-4.933448	220	5	1.1	0.9	;
    93	1	0	0	0	2.83	0	1.05759	-4.070122	220	5	1.1	0.9	;
    94	1	0	0	0	3.03	0	1.073922	-26.380554	220	5	1.1	0.9	;
    95	2	0	0	0	0	0	1.057884	-28.950791	220	5	1.1	0.9	;
    96	1	0	0	0	18.63	0	1.041141	-24.444747	220	5	1.1	0.9	;
    97	2	0	0	0	0	0	1.017567	-13.765564	380	5	1.1	0.9	;
    98	1	0	0	0	7.85	0	1.047952	-19.8489	220	5	1.1	0.9	;
    99	1	0	0	0	6.12	0	1.024104	-10.886119	220	5	1.1	0.9	;
    100	1	0	0	0	5.55	0	1.034361	-14.167643	220	5	1.1	0.9	;
    101	2	0	0	0	0	0	1.026368	-13.331099	220	5	1.1	0.9	;
    102	2	0	0	0	0	0	1.049411	-6.680953	220	5	1.1	0.9	;
    103	1	0	0	0	6.63	0	1.051689	-5.954643	220	5	1.1	0.9	;
    104	2	0	0	0	0	0	1.035522	-15.484388	220	5	1.1	0.9	;
    105	1	0	0	0	0.11	0	1.034778	-12.128589	220	5	1.1	0.9	;
    106	2	0	0	0	0	0	1.041369	-24.768342	220	5	1.1	0.9	;
    107	1	0	0	0	7.26	0	1.05585	-7.563603	220	5	1.1	0.9	;
    108	1	0	0	0	15.4	0	1.05673	-11.12828	220	5	1.1	0.9	;
    109	1	0	0	0	58.088687	0	1.027525	-0.064839	380	5	1.1	0.9	;
    110	1	0	0	0	0.22	0	1.052169	-0.720463	220	5	1.1	0.9	;
    111	2	0	0	0	0	0	1.044097	-2.229251	380	5	1.1	0.9	;
    112	1	0	0	0	8.17514	0	1.024385	-1.386321	380	5	1.1	0.9	;
    113	2	0	0	0	0	0	1.00025	-17.401395	220	5	1.1	0.9	;
    114	2	0	0	0	0	0	1.031745	1.110134	380	5	1.1	0.9	;
    115	1	0	0	0	11.95	0	1.040762	-24.602002	220	5	1.1	0.9	;
    116	1	0	0	0	3.72	0	1.056945	-11.955754	220	5	1.1	0.9	;
    117	1	0	0	0	6.65	0	1.017176	-10.133417	220	5	1.1	0.9	;
    118	2	0	0	0	0	0	1.064525	-18.97841	380	5	1.1	0.9	;
    119	1	0	0	0	9.1	0	1.069234	-34.99461	220	5	1.1	0.9	;
    120	1	0	0	0	0.15	0	1.050278	-15.385577	220	5	1.1	0.9	;
    121	1	0	0	0	1.36	0	1.073885	-26.405705	220	5	1.1	0.9	;
    122	1	0	0	0	7.534129	0	1.035643	-15.075813	380	5	1.1	0.9	;
    123	1	0	0	0	0.05	0	1.038555	-9.767436	220	5	1.1	0.9	;
    124	1	0	0	0	0.21	0	1.065214	-7.929625	220	5	1.1	0.9	;
    125	1	0	0	0	1.11	0	1.045537	-20.769903	220	5	1.1	0.9	;
    126	1	0	0	0	4.84	0	1.035596	-23.090183	220	5	1.1	0.9	;
    127	1	0	0	0	22.75	0	1.019946	-21.525393	220	5	1.1	0.9	;
    128	1	0	0	0	9.46	0	1.049182	-24.470238	220	5	1.1	0.9	;
    129	1	0	0	0	37.11	0	1.065973	-13.014498	380	5	1.1	0.9	;
    130	1	0	0	0	0.67	0	1.044324	-21.525875	220	5	1.1	0.9	;
    131	1	0	0	0	108.728602	0	1.063295	-9.078724	380	5	1.1	0.9	;
    132	1	0	0	0	146.44	0	1.015553	-11.659761	380	5	1.1	0.9	;
    133	2	0	0	0	0	0	1.072621	5.35893	380	5	1.3	0.9	;
    134	1	0	0	0	7.88	0	1.047164	-25.138433	220	5	1.1	0.9	;
    135	2	0	0	0	0	0	1.074143	-33.62199	220	5	1.1	0.9	;
    136	2	0	0	0	0	0	1.041506	-20.086455	220	5	1.1	0.9	;
    137	1	0	0	0	0.81	0	1.053955	-12.379476	220	5	1.1	0.9	;
    138	1	0	0	0	4.78	0	1.056277	-5.398682	220	5	1.1	0.9	;
    139	1	0	0	0	9.67	0	1.028182	-29.352232	220	5	1.1	0.9	;
    140	1	0	0	0	30.393595	0	0.990542	-18.181223	380	5	1.1	0.9	;
    141	1	0	0	0	4.31	0	1.040934	-24.521854	220	5	1.1	0.9	;
    142	1	0	0	0	8.16	0	1.067815	-32.322562	220	5	1.1	0.9	;
    143	1	0	0	0	0.91	0	1.034441	-19.543294	220	5	1.1	0.9	;
    144	1	0	0	0	3.79	0	1.038913	-9.027471	220	5	1.1	0.9	;
    145	2	0	0	0	0	0	1.028946	-3.693426	380	5	1.1	0.9	;
    146	1	0	0	0	3.79	0	1.041627	-12.829065	220	5	1.1	0.9	;
    147	1	0	0	0	0.1	0	1.035206	-12.094658	220	5	1.1	0.9	;
    148	1	0	0	0	4.74	0	1.061509	-3.472987	220	5	1.1	0.9	;
    149	1	0	0	0	182.880644	0	1.038644	-10.509999	380	5	1.1	0.9	;
    150	2	0	0	0	0	0	1.049472	-8.613737	220	5	1.1	0.9	;
    151	1	0	0	0	4.24	0	1.0101	-21.692579	220	5	1.1	0.9	;
    152	2	0	0	0	0	0	1.027056	-8.507308	380	5	1.1	0.9	;
    153	1	0	0	0	0.16	0	1.050189	-1.116839	220	5	1.1	0.9	;
    154	2	0	0	0	0	0	1.042801	-4.348181	220	5	1.1	0.9	;
    155	1	0	0	0	2.05	0	1.033508	-14.209132	220	5	1.1	0.9	;
    156	2	0	0	0	0	0	1.049879	-6.64195	220	5	1.1	0.9	;
    157	1	0	0	0	6.49	0	1.074759	-26.325932	220	5	1.1	0.9	;
    158	1	0	0	0	1.1	0	1.036823	-8.871578	220	5	1.1	0.9	;
    159	1	0	0	0	6.7	0	1.003325	-22.532961	220	5	1.1	0.9	;
    160	1	0	0	0	0.71	0	1.034786	-18.539009	220	5	1.1	0.9	;
    161	1	0	0	0	0.05	0	1.048666	-24.42816	220	5	1.1	0.9	;
    162	1	0	0	0	1.41	0	1.032638	-5.627486	220	5	1.1	0.9	;
    163	1	0	0	0	18.82	0	1.043354	-20.606997	220	5	1.1	0.9	;
    164	1	0	0	0	2.23	0	1.034654	-6.058841	220	5	1.1	0.9	;
    165	1	0	0	0	9.95	0	1.038055	-22.501868	220	5	1.1	0.9	;
    166	1	0	0	0	3.99	0	1.052615	-36.244174	220	5	1.1	0.9	;
    167	1	0	0	0	2.3	0	1.074468	-25.55724	220	5	1.1	0.9	;
    168	1	0	0	0	0.39	0	1.040896	-2.802576	220	5	1.1	0.9	;
    169	1	0	0	0	6.68	0	1.066643	-33.081849	220	5	1.1	0.9	;
    170	1	0	0	0	5.71	0	1.039857	-4.955282	220	5	1.1	0.9	;
    171	1	0	0	0	9.09	0	1.054495	-14.222981	220	5	1.1	0.9	;
    172	1	0	0	0	13.98	0	1.03896	-15.127161	380	5	1.1	0.9	;
    173	1	0	0	0	30.637696	0	0.987964	-14.637206	380	5	1.1	0.9	;
    174	1	0	0	0	1.08	0	1.050304	-19.627666	220	5	1.1	0.9	;
    175	1	0	0	0	4.93	0	1.040626	-10.966354	220	5	1.1	0.9	;
    176	1	0	0	0	1.72	0	1.037981	-22.526704	220	5	1.1	0.9	;
    177	1	0	0	0	1.96	0	1.022628	-16.524518	220	5	1.1	0.9	;
    178	2	0	0	0	0	0	1.108028	-6.285992	380	5	1.3	0.9	;
    179	1	0	0	0	1.17	0	1.047205	-10.673893	220	5	1.1	0.9	;
    180	1	0	0	0	9.36	0	1.019402	-11.26449	380	5	1.1	0.9	;
    181	2	0	0	0	0	0	1.027102	-8.516785	380	5	1.1	0.9	;
    182	1	0	0	0	10.73	0	1.038607	-22.034538	220	5	1.1	0.9	;
    183	1	0	0	0	5.93	0	1.066705	-50.057306	220	5	1.1	0.9	;
    184	1	0	0	0	0.35	0	1.032647	-18.856368	220	5	1.1	0.9	;
    185	2	0	0	0	0	0	1.03682	-8.643487	220	5	1.1	0.9	;
    186	1	0	0	0	10.68	0	1.05167	-28.720012	220	5	1.1	0.9	;
    187	1	0	0	0	4.34	0	1.038253	-22.269637	220	5	1.1	0.9	;
    188	1	0	0	0	35.31	0	1.033986	-21.654604	380	5	1.1	0.9	;
    189	1	0	0	0	0.98	0	1.069384	-34.995605	220	5	1.1	0.9	;
    190	1	0	0	0	0.59	0	1.025188	-16.314102	220	5	1.1	0.9	;
    191	2	0	0	0	0	0	1.032899	-14.204982	220	5	1.1	0.9	;
    192	1	0	0	0	58.3	0	0.996377	-14.200565	380	5	1.1	0.9	;
    193	2	0	0	0	0	0	1.041045	-7.375163	220	5	1.1	0.9	;
    194	1	0	0	0	190.704588	0	1.0328	-8.554156	380	5	1.1	0.9	;
    195	1	0	0	0	0.59	0	1.039851	-12.092524	220	5	1.1	0.9	;
    196	1	0	0	0	1.09	0	1.033661	-22.574327	220	5	1.1	0.9	;
    197	1	0	0	0	4.69	0	1.074659	-26.314245	220	5	1.1	0.9	;
    198	1	0	0	0	2.14	0	1.037924	-12.820941	220	5	1.1	0.9	;
    199	1	0	0	0	0.1	0	1.017322	-19.003234	220	5	1.1	0.9	;
    200	1	0	0	0	5.27	0	1.038647	-14.758146	220	5	1.1	0.9	;
...
];

% generator data
%	bus	Pg	Qg	Qmax	Qmin	Vg	mBase	status	Pmax	Pmin	Pc1	Pc2	Qc1min	Qc1max	Qc2min	Qc2max	ramp_agc	ramp_10	ramp_30	ramp_q	apf
mpc.gen = [
	17	0	0	440.32	-172.59	1.081537	100	1	1000	0	0	0	0	0	0	0	0	0	0	0	0	;
    21	0	0	77.09	-22.54	1.062805	100	1	160	0	0	0	0	0	0	0	0	0	0	0	0	;
    34	0	0	183.92	-65.3	0.984682	100	1	100	0	0	0	0	0	0	0	0	0	0	0	0	;
    43	0	0	55.54	-19.16	1.048249	100	1	120	0	0	0	0	0	0	0	0	0	0	0	0	;
    46	0	0	926.35	-297.68	1.055378	100	1	2000	0	0	0	0	0	0	0	0	0	0	0	0	;
    51	0	0	124.12	-49.84	1.05013	100	1	280	0	0	0	0	0	0	0	0	0	0	0	0	;
    57	0	0	257.23	-74.4	1.018914	100	1	540	0	0	0	0	0	0	0	0	0	0	0	0	;
    64	0	0	261.79	-106.67	1.075592	100	1	600	0	0	0	0	0	0	0	0	0	0	0	0	;
    70	0	0	18.47	-19.35	1.069817	100	1	100	0	0	0	0	0	0	0	0	0	0	0	0	;
    72	0	0	17.88	-7.03	1.045397	100	1	100	0	0	0	0	0	0	0	0	0	0	0	0	;
    78	0	0	17.09	-7.79	1.063876	100	1	40	0	0	0	0	0	0	0	0	0	0	0	0	;
    79	0	0	217.9	-81.16	1.048713	100	1	480	0	0	0	0	0	0	0	0	0	0	0	0	;
    81	0	0	135.52	-38.9	1.051376	100	1	100	0	0	0	0	0	0	0	0	0	0	0	0	;
    87	0	0	38.77	-11.06	1.0691	100	1	80	0	0	0	0	0	0	0	0	0	0	0	0	;
    95	0	0	105.69	-43.84	1.057884	100	1	240	0	0	0	0	0	0	0	0	0	0	0	0	;
    97	0	0	51.3	-23.41	1.017567	100	1	120	0	0	0	0	0	0	0	0	0	0	0	0	;
    101	0	0	18.16	-6.73	1.026368	100	1	100	0	0	0	0	0	0	0	0	0	0	0	0	;
    102	0	0	12.37	-9.36	1.049411	100	1	33.58	0	0	0	0	0	0	0	0	0	0	0	0	;
    104	0	0	36.75	-13.04	1.035522	100	1	80	0	0	0	0	0	0	0	0	0	0	0	0	;
    106	0	0	74.03	-25.54	1.041369	100	1	100	0	0	0	0	0	0	0	0	0	0	0	0	;
    111	0	0	926.68	-298.31	1.044097	100	1	2000	0	0	0	0	0	0	0	0	0	0	0	0	;
    113	0	0	96.64	-27.81	1.00025	100	1	200	0	0	0	0	0	0	0	0	0	0	0	0	;
    114	0	0	440.67	-172.15	1.031745	100	1	1000	0	0	0	0	0	0	0	0	0	0	0	0	;
    118	0	0	1097.41	-373.91	1.064525	100	1	2400	0	0	0	0	0	0	0	0	0	0	0	0	;
    133	0	0	934.73	-291.52	1.072621	100	1	2000	0	0	0	0	0	0	0	0	0	0	0	0	;
    135	0	0	55.02	-19.81	1.074143	100	1	120	0	0	0	0	0	0	0	0	0	0	0	0	;
    136	0	0	89.55	-35.15	1.041506	100	1	200	0	0	0	0	0	0	0	0	0	0	0	0	;
    145	0	0	387.88	-163.4	1.028946	100	1	900	0	0	0	0	0	0	0	0	0	0	0	0	;
    150	0	0	54.91	-19.88	1.049472	100	1	120	0	0	0	0	0	0	0	0	0	0	0	0	;
    152	0	0	550.69	-185.15	1.027056	100	1	1200	0	0	0	0	0	0	0	0	0	0	0	0	;
    154	0	0	36.8	-13.01	1.042801	100	1	80	0	0	0	0	0	0	0	0	0	0	0	0	;
    156	0	0	38.05	-11.59	1.049879	100	1	100	0	0	0	0	0	0	0	0	0	0	0	0	;
    178	0	0	906.61	-319.44	1.108028	100	1	2000	0	0	0	0	0	0	0	0	0	0	0	0	;
    181	0	0	550.69	-185.15	1.027102	100	1	1200	0	0	0	0	0	0	0	0	0	0	0	0	;
    185	0	0	36.92	-12.88	1.03682	100	1	100	0	0	0	0	0	0	0	0	0	0	0	0	;
    191	0	0	57.03	-17.62	1.032899	100	1	120	0	0	0	0	0	0	0	0	0	0	0	0	;
    193	0	0	38.08	-11.73	1.041045	100	1	100	0	0	0	0	0	0	0	0	0	0	0	0	;
    203	0	0	18.09	-6.79	1.04353	100	1	100	0	0	0	0	0	0	0	0	0	0	0	0	;
    205	0	0	37.72	-12.09	1.047684	100	1	80	0	0	0	0	0	0	0	0	0	0	0	0	;
    210	0	0	36.4	-13.44	1.048068	100	1	80	0	0	0	0	0	0	0	0	0	0	0	0	;
    233	0	0	37.66	-12.17	1.043862	100	1	80	0	0	0	0	0	0	0	0	0	0	0	0	;
    239	0	0	37.74	-12.11	1.028554	100	1	80	0	0	0	0	0	0	0	0	0	0	0	0	;
    244	0	0	928.89	-296.1	1.04395	100	1	2000	0	0	0	0	0	0	0	0	0	0	0	0	;
    247	0	0	439.37	-173.3	1.037938	100	1	1000	0	0	0	0	0	0	0	0	0	0	0	0	;
    250	0	0	18.52	-6.39	1.062238	100	1	40	0	0	0	0	0	0	0	0	0	0	0	0	;
    255	0	0	16.99	-7.92	1.04286	100	1	41.06	0	0	0	0	0	0	0	0	0	0	0	0	;
    261	0	0	926.35	-297.68	1.05295	100	1	2000	0	0	0	0	0	0	0	0	0	0	0	0	;
    264	0	0	111.23	-38.16	1.046224	100	1	100	0	0	0	0	0	0	0	0	0	0	0	0	;
    270	0	0	11.76	-8.89	1.04762	100	1	31.92	0	0	0	0	0	0	0	0	0	0	0	0	;
    271	0	0	58.16	-16.52	1.054325	100	1	100	0	0	0	0	0	0	0	0	0	0	0	0	;
    278	0	0	396.02	-155.83	1.039377	100	1	912.78	0	0	0	0	0	0	0	0	0	0	0	0	;
    282	0	0	160.36	-150.95	1.035636	100	1	472.16	0	0	0	0	0	0	0	0	0	0	0	0	;
    286	0	0	18.14	-6.75	1.064692	100	1	40	0	0	0	0	0	0	0	0	0	0	0	0	;
    296	0	0	441.85	-171.27	1.03088	100	1	1000	0	0	0	0	0	0	0	0	0	0	0	0	;
    300	0	0	962.2	-263.65	1.009914	100	1	2000	0	0	0	0	0	0	0	0	0	0	0	0	;
    307	0	0	88.39	-36.19	1.040351	100	1	200	0	0	0	0	0	0	0	0	0	0	0	0	;
    320	0	0	58.35	-16.26	1.07333	100	1	100	0	0	0	0	0	0	0	0	0	0	0	0	;
    323	0	0	19.51	-14.74	1.035528	100	1	100	0	0	0	0	0	0	0	0	0	0	0	0	;
    331	0	0	41.67	-36.5	1.05324	100	1	119.3	0	0	0	0	0	0	0	0	0	0	0	0	;
    334	0	0	95.69	-28.93	1.072528	100	1	200	0	0	0	0	0	0	0	0	0	0	0	0	;
    345	0	0	34.35	-15.5	1.024884	100	1	80	0	0	0	0	0	0	0	0	0	0	0	0	;
    353	0	0	37.39	-12.45	1.047766	100	1	100	0	0	0	0	0	0	0	0	0	0	0	0	;
    355	0	0	54.3	-20.49	1.041186	100	1	100	0	0	0	0	0	0	0	0	0	0	0	0	;
    356	0	0	105.34	-99.02	1.037687	100	1	100	0	0	0	0	0	0	0	0	0	0	0	0	;
    360	0	0	921.62	-304.73	1.06157	100	1	2000	0	0	0	0	0	0	0	0	0	0	0	0	;
    364	0	0	38.02	-11.81	1.048132	100	1	80	0	0	0	0	0	0	0	0	0	0	0	0	;
    367	0	0	39.12	-10.71	1.042777	100	1	80	0	0	0	0	0	0	0	0	0	0	0	0	;
    368	0	0	162.4	-61.79	1.049366	100	1	360	0	0	0	0	0	0	0	0	0	0	0	0	;
    375	0	0	58.23	-16.49	1.049384	100	1	120	0	0	0	0	0	0	0	0	0	0	0	0	;
    382	0	0	76.08	-23.59	1.038821	100	1	160	0	0	0	0	0	0	0	0	0	0	0	0	;
    383	0	0	921.52	-304.79	1.061488	100	1	2000	0	0	0	0	0	0	0	0	0	0	0	0	;
    387	0	0	51.94	-22.8	1.036517	100	1	120	0	0	0	0	0	0	0	0	0	0	0	0	;
    394	0	0	70.15	-58.1	1.035384	100	1	196.72	0	0	0	0	0	0	0	0	0	0	0	0	;
    402	0	0	934.81	-291.47	1.073795	100	1	2000	0	0	0	0	0	0	0	0	0	0	0	0	;
    405	0	0	88.33	-36.33	1.042226	100	1	100	0	0	0	0	0	0	0	0	0	0	0	0	;
    406	0	0	77.91	-21.66	1.05396	100	1	160	0	0	0	0	0	0	0	0	0	0	0	0	;
    410	0	0	926.26	-297.74	1.053944	100	1	2000	0	0	0	0	0	0	0	0	0	0	0	0	;
    411	0	0	55.98	-18.76	1.08248	100	1	120	0	0	0	0	0	0	0	0	0	0	0	0	;
    412	0	0	18.19	-6.74	1.043712	100	1	40	0	0	0	0	0	0	0	0	0	0	0	0	;
    419	0	0	3.31	-2.54	1.063841	100	1	9.05	0	0	0	0	0	0	0	0	0	0	0	0	;
    421	0	0	72.95	-68.71	1.057626	100	1	214.86	0	0	0	0	0	0	0	0	0	0	0	0	;
    422	0	0	57.69	-17.02	1.055151	100	1	120	0	0	0	0	0	0	0	0	0	0	0	0	;
    426	0	0	19.19	-5.72	1.059072	100	1	40	0	0	0	0	0	0	0	0	0	0	0	0	;
    432	0	0	37.24	-12.54	1.047695	100	1	80	0	0	0	0	0	0	0	0	0	0	0	0	;
    434	0	0	2.51	-1.91	1.051149	100	1	6.83	0	0	0	0	0	0	0	0	0	0	0	0	;
    444	0	0	184.46	-132.67	1.053607	100	1	493.35	0	0	0	0	0	0	0	0	0	0	0	0	;
    447	0	0	89.61	-34.82	1.041705	100	1	200	0	0	0	0	0	0	0	0	0	0	0	0	;
    451	0	0	441.85	-171.27	1.030654	100	1	1000	0	0	0	0	0	0	0	0	0	0	0	0	;
    465	0	0	17.33	-7.61	1.071964	100	1	40	0	0	0	0	0	0	0	0	0	0	0	0	;
    468	0	0	113.97	-35.56	1.065372	100	1	240	0	0	0	0	0	0	0	0	0	0	0	0	;
    469	0	0	70.25	-29.33	1.023117	100	1	100	0	0	0	0	0	0	0	0	0	0	0	0	;
    473	0	0	53.7	-20.98	1.055515	100	1	120	0	0	0	0	0	0	0	0	0	0	0	0	;
    479	0	0	243.61	-88.46	1.041982	100	1	540	0	0	0	0	0	0	0	0	0	0	0	0	;
    480	0	0	36.79	-13	1.028507	100	1	100	0	0	0	0	0	0	0	0	0	0	0	0	;
    484	0	0	62.23	-51.37	1.050305	100	1	100	0	0	0	0	0	0	0	0	0	0	0	0	;
    492	0	0	439.2	-173.43	1.071978	100	1	1000	0	0	0	0	0	0	0	0	0	0	0	0	;
    493	0	0	38.13	-11.64	1.014126	100	1	100	0	0	0	0	0	0	0	0	0	0	0	0	;
    498	0	0	37.1	-12.76	1.01594	100	1	80	0	0	0	0	0	0	0	0	0	0	0	0	;
    499	0	0	38.2	-11.61	1.045739	100	1	80	0	0	0	0	0	0	0	0	0	0	0	0	;
    500	0	0	47.19	-41.44	1.0538	100	1	135.27	0	0	0	0	0	0	0	0	0	0	0	0	;
    502	0	0	54.59	-20.19	1.039984	100	1	120	0	0	0	0	0	0	0	0	0	0	0	0	;
    507	0	0	58.19	-16.5	1.063657	100	1	120	0	0	0	0	0	0	0	0	0	0	0	0	;
    510	0	0	550.97	-184.89	1.060777	100	1	1200	0	0	0	0	0	0	0	0	0	0	0	0	;
    518	0	0	53.75	-21.08	1.04852	100	1	100	0	0	0	0	0	0	0	0	0	0	0	0	;
    524	0	0	387.88	-163.4	1.028771	100	1	900	0	0	0	0	0	0	0	0	0	0	0	0	;
    534	0	0	38.83	-10.97	1.081614	100	1	80	0	0	0	0	0	0	0	0	0	0	0	0	;
    537	0	0	261.7	-107.36	1.07602	100	1	600	0	0	0	0	0	0	0	0	0	0	0	0	;
    545	0	0	54.59	-20.12	1.03905	100	1	100	0	0	0	0	0	0	0	0	0	0	0	0	;
    551	0	0	116.07	-33.32	1.070983	100	1	100	0	0	0	0	0	0	0	0	0	0	0	0	;
    553	0	0	441.04	-172.05	1.059676	100	1	1000	0	0	0	0	0	0	0	0	0	0	0	0	;
    559	0	0	36.34	-13.47	1.041813	100	1	100	0	0	0	0	0	0	0	0	0	0	0	0	;
    565	0	0	548.57	-187.16	1.031629	100	1	1200	0	0	0	0	0	0	0	0	0	0	0	0	;
    574	0	0	313.01	-116.73	1.084785	100	1	700	0	0	0	0	0	0	0	0	0	0	0	0	;
    578	0	0	388.17	-163.4	1.026994	100	1	900	0	0	0	0	0	0	0	0	0	0	0	0	;
    585	0	0	440.69	-172.14	1.031907	100	1	1000	0	0	0	0	0	0	0	0	0	0	0	0	;
    586	0	0	34.27	-15.52	1.044501	100	1	100	0	0	0	0	0	0	0	0	0	0	0	0	;
    592	0	0	38.02	-11.77	1.043758	100	1	100	0	0	0	0	0	0	0	0	0	0	0	0	;
    598	0	0	126.16	-127.56	1.027439	100	1	100	0	0	0	0	0	0	0	0	0	0	0	0	;
    602	0	0	55.67	-19.09	1.063145	100	1	100	0	0	0	0	0	0	0	0	0	0	0	0	;
    610	0	0	97.07	-27.44	1.040328	100	1	200	0	0	0	0	0	0	0	0	0	0	0	0	;
    617	0	0	38.05	-11.77	1.038526	100	1	100	0	0	0	0	0	0	0	0	0	0	0	0	;
    619	0	0	264.94	-103.74	1.063234	100	1	600	0	0	0	0	0	0	0	0	0	0	0	0	;
    624	0	0	38.37	-11.4	1.027195	100	1	80	0	0	0	0	0	0	0	0	0	0	0	0	;
    625	0	0	36.89	-13	1.003502	100	1	80	0	0	0	0	0	0	0	0	0	0	0	0	;
    627	0	0	57.03	-17.63	1.019761	100	1	120	0	0	0	0	0	0	0	0	0	0	0	0	;
    640	0	0	0	0	1.049182	100	1	4188.95	0	0	0	0	0	0	0	0	0	0	0	0	;
    654	0	0	36.73	-13.12	1.028646	100	1	80	0	0	0	0	0	0	0	0	0	0	0	0	;
    660	0	0	38.48	-11.33	1.039834	100	1	100	0	0	0	0	0	0	0	0	0	0	0	0	;
    664	0	0	441.04	-172.05	1.059565	100	1	1000	0	0	0	0	0	0	0	0	0	0	0	0	;
    669	0	0	439.2	-173.43	1.071852	100	1	1000	0	0	0	0	0	0	0	0	0	0	0	0	;
    670	0	0	38.85	-10.95	1.049914	100	1	80	0	0	0	0	0	0	0	0	0	0	0	0	;
    676	0	0	37.86	-11.95	1.036047	100	1	100	0	0	0	0	0	0	0	0	0	0	0	0	;
    688	0	0	37.94	-11.87	1.073282	100	1	100	0	0	0	0	0	0	0	0	0	0	0	0	;
    694	0	0	35.62	-14.19	1.042135	100	1	80	0	0	0	0	0	0	0	0	0	0	0	0	;
    696	0	0	19.14	-5.77	1.049813	100	1	100	0	0	0	0	0	0	0	0	0	0	0	0	;
    702	0	0	98.4	-86.29	1.043063	100	1	281.85	0	0	0	0	0	0	0	0	0	0	0	0	;
    713	0	0	439.2	-173.43	1.071981	100	1	1000	0	0	0	0	0	0	0	0	0	0	0	0	;
    715	0	0	38.37	-11.44	1.067305	100	1	100	0	0	0	0	0	0	0	0	0	0	0	0	;
    716	0	0	440.69	-172.14	1.031907	100	1	1000	0	0	0	0	0	0	0	0	0	0	0	0	;
    717	0	0	4.44	-2.07	1.067114	100	1	10.46	0	0	0	0	0	0	0	0	0	0	0	0	;
    721	0	0	76.52	-23.19	1.054975	100	1	160	0	0	0	0	0	0	0	0	0	0	0	0	;
    726	0	0	75.62	-23.96	1.034991	100	1	100	0	0	0	0	0	0	0	0	0	0	0	0	;
    732	0	0	37.27	-12.57	1.057325	100	1	80	0	0	0	0	0	0	0	0	0	0	0	0	;
    739	0	0	37.23	-12.61	1.045386	100	1	100	0	0	0	0	0	0	0	0	0	0	0	0	;
    744	0	0	74.73	-70.41	1.0663	100	1	220.12	0	0	0	0	0	0	0	0	0	0	0	0	;
    747	0	0	37.72	-12.09	1.047693	100	1	80	0	0	0	0	0	0	0	0	0	0	0	0	;
    749	0	0	74.55	-24.97	1.037373	100	1	160	0	0	0	0	0	0	0	0	0	0	0	0	;
    750	0	0	258.91	-109.58	1.021924	100	1	600	0	0	0	0	0	0	0	0	0	0	0	0	;
    756	0	0	38.28	-11.5	1.032061	100	1	100	0	0	0	0	0	0	0	0	0	0	0	0	;
    757	0	0	56.35	-18.42	1.055539	100	1	120	0	0	0	0	0	0	0	0	0	0	0	0	;
    760	0	0	882.86	-343.24	1.035201	100	1	2000	0	0	0	0	0	0	0	0	0	0	0	0	;
    769	0	0	75.02	-24.74	1.052719	100	1	160	0	0	0	0	0	0	0	0	0	0	0	0	;
    774	0	0	51.3	-23.49	1.042037	100	1	120	0	0	0	0	0	0	0	0	0	0	0	0	;
    782	0	0	36.37	-13.43	1.054941	100	1	100	0	0	0	0	0	0	0	0	0	0	0	0	;
    788	0	0	18.14	-6.75	1.061754	100	1	40	0	0	0	0	0	0	0	0	0	0	0	0	;
    789	0	0	926.47	-297.63	1.107976	100	1	2000	0	0	0	0	0	0	0	0	0	0	0	0	;
    793	0	0	58.06	-16.66	1.048137	100	1	100	0	0	0	0	0	0	0	0	0	0	0	0	;
    806	0	0	38.26	-11.55	1.06213	100	1	80	0	0	0	0	0	0	0	0	0	0	0	0	;
    809	0	0	920.31	-305.64	1.063711	100	1	2000	0	0	0	0	0	0	0	0	0	0	0	0	;
    810	0	0	101.32	-48.12	1.044486	100	1	249.06	0	0	0	0	0	0	0	0	0	0	0	0	;
    811	0	0	441.04	-172.05	1.059636	100	1	1000	0	0	0	0	0	0	0	0	0	0	0	0	;
    812	0	0	37.49	-12.33	1.041881	100	1	100	0	0	0	0	0	0	0	0	0	0	0	0	;
    813	0	0	1765.36	-686.67	1.068845	100	1	4000	0	0	0	0	0	0	0	0	0	0	0	0	;
    819	0	0	88.87	-35.71	1.038212	100	1	200	0	0	0	0	0	0	0	0	0	0	0	0	;
    820	0	0	19.16	-5.75	1.05378	100	1	40	0	0	0	0	0	0	0	0	0	0	0	0	;
    822	0	0	36.8	-12.99	1.04123	100	1	80	0	0	0	0	0	0	0	0	0	0	0	0	;
    836	0	0	103.18	-46.25	1.017689	100	1	240	0	0	0	0	0	0	0	0	0	0	0	0	;
    837	0	0	72.71	-27.05	1.070507	100	1	160	0	0	0	0	0	0	0	0	0	0	0	0	;
    844	0	0	550.69	-185.15	1.027078	100	1	1200	0	0	0	0	0	0	0	0	0	0	0	0	;
    853	0	0	779.29	-324.79	1.0396	100	1	1800	0	0	0	0	0	0	0	0	0	0	0	0	;
    857	0	0	196.98	-77.17	1.044051	100	1	440	0	0	0	0	0	0	0	0	0	0	0	0	;
    861	0	0	214.13	-85	1.038417	100	1	480	0	0	0	0	0	0	0	0	0	0	0	0	;
    863	0	0	36.72	-13.13	1.065605	100	1	80	0	0	0	0	0	0	0	0	0	0	0	0	;
    869	0	0	17.21	-7.73	1.030075	100	1	100	0	0	0	0	0	0	0	0	0	0	0	0	;
    872	0	0	934.54	-291.64	1.070056	100	1	2000	0	0	0	0	0	0	0	0	0	0	0	0	;
    873	0	0	37.27	-12.59	1.066029	100	1	100	0	0	0	0	0	0	0	0	0	0	0	0	;
    877	0	0	60.51	-61.08	1.029184	100	1	100	0	0	0	0	0	0	0	0	0	0	0	0	;
    880	0	0	390.4	-161.16	1.043738	100	1	900	0	0	0	0	0	0	0	0	0	0	0	0	;
    893	0	0	249.65	-261.82	0.988112	100	1	769.94	0	0	0	0	0	0	0	0	0	0	0	0	;
    895	0	0	19.86	-14.93	1.040343	100	1	53.76	0	0	0	0	0	0	0	0	0	0	0	0	;
    913	0	0	58.12	-16.6	1.040598	100	1	120	0	0	0	0	0	0	0	0	0	0	0	0	;
    917	0	0	37.76	-12.05	1.052181	100	1	80	0	0	0	0	0	0	0	0	0	0	0	0	;
    918	0	0	96.56	-27.95	1.062214	100	1	200	0	0	0	0	0	0	0	0	0	0	0	0	;
    920	0	0	38.29	-11.56	1.064446	100	1	80	0	0	0	0	0	0	0	0	0	0	0	0	;
    922	0	0	51.11	-23.46	1.043835	100	1	100	0	0	0	0	0	0	0	0	0	0	0	0	;
    924	0	0	148.65	-50.73	1.046714	100	1	100	0	0	0	0	0	0	0	0	0	0	0	0	;
    931	0	0	88.83	-35.69	1.039574	100	1	200	0	0	0	0	0	0	0	0	0	0	0	0	;
    936	0	0	438.72	-174.15	1.06557	100	1	1000	0	0	0	0	0	0	0	0	0	0	0	0	;
    942	0	0	126.73	-47.83	1.052452	100	1	280	0	0	0	0	0	0	0	0	0	0	0	0	;
    945	0	0	37.58	-12.16	1.048796	100	1	100	0	0	0	0	0	0	0	0	0	0	0	0	;
    971	0	0	311.52	-132.09	1.061492	100	1	720	0	0	0	0	0	0	0	0	0	0	0	0	;
    985	0	0	77.14	-22.46	1.006037	100	1	160	0	0	0	0	0	0	0	0	0	0	0	0	;
    986	0	0	77.35	-22.26	1.053803	100	1	160	0	0	0	0	0	0	0	0	0	0	0	0	;
    987	0	0	11.99	-9.06	1.049557	100	1	32.53	0	0	0	0	0	0	0	0	0	0	0	0	;
    989	0	0	35.62	-14.25	1.031347	100	1	100	0	0	0	0	0	0	0	0	0	0	0	0	;
    993	0	0	53.24	-21.47	1.055216	100	1	120	0	0	0	0	0	0	0	0	0	0	0	0	;
    995	0	0	18.56	-6.34	1.031296	100	1	100	0	0	0	0	0	0	0	0	0	0	0	0	;
    997	0	0	1865.83	-585.95	1.021411	100	1	4000	0	0	0	0	0	0	0	0	0	0	0	0	;
    1000	0	0	189.31	-59.87	1.039234	100	1	300	0	0	0	0	0	0	0	0	0	0	0	0	;
    1011	0	0	126.09	-48.29	1.051367	100	1	280	0	0	0	0	0	0	0	0	0	0	0	0	;
...
	% Dispatchable loads																			    
    1	0	0	0	0	0	0	0	0	0	0	0	0	0	0	0	0	0	0	0	0	;
    2	0	0	0	0	0	0	0	0	0	0	0	0	0	0	0	0	0	0	0	0	;
    3	0	0	0	0	0	0	0	0	0	0	0	0	0	0	0	0	0	0	0	0	;
    4	0	0	0	0	0	0	0	0	0	0	0	0	0	0	0	0	0	0	0	0	;
    6	0	0	0	0	0	0	0	0	0	0	0	0	0	0	0	0	0	0	0	0	;
    7	0	0	0	0	0	0	0	0	0	0	0	0	0	0	0	0	0	0	0	0	;
    9	0	0	0	0	0	0	0	0	0	0	0	0	0	0	0	0	0	0	0	0	;
    11	0	0	0	0	0	0	0	0	0	0	0	0	0	0	0	0	0	0	0	0	;
    12	0	0	0	0	0	0	0	0	0	0	0	0	0	0	0	0	0	0	0	0	;
    16	0	0	0	0	0	0	0	0	0	0	0	0	0	0	0	0	0	0	0	0	;
    18	0	0	0	0	0	0	0	0	0	0	0	0	0	0	0	0	0	0	0	0	;
    19	0	0	0	0	0	0	0	0	0	0	0	0	0	0	0	0	0	0	0	0	;
    20	0	0	0	0	0	0	0	0	0	0	0	0	0	0	0	0	0	0	0	0	;
    22	0	0	0	0	0	0	0	0	0	0	0	0	0	0	0	0	0	0	0	0	;
    23	0	0	0	0	0	0	0	0	0	0	0	0	0	0	0	0	0	0	0	0	;
    24	0	0	0	0	0	0	0	0	0	0	0	0	0	0	0	0	0	0	0	0	;
    26	0	0	0	0	0	0	0	0	0	0	0	0	0	0	0	0	0	0	0	0	;
    27	0	0	0	0	0	0	0	0	0	0	0	0	0	0	0	0	0	0	0	0	;
    29	0	0	0	0	0	0	0	0	0	0	0	0	0	0	0	0	0	0	0	0	;
    30	0	0	0	0	0	0	0	0	0	0	0	0	0	0	0	0	0	0	0	0	;
    31	0	0	0	0	0	0	0	0	0	0	0	0	0	0	0	0	0	0	0	0	;
    32	0	0	0	0	0	0	0	0	0	0	0	0	0	0	0	0	0	0	0	0	;
    33	0	0	0	0	0	0	0	0	0	0	0	0	0	0	0	0	0	0	0	0	;
    36	0	0	0	0	0	0	0	0	0	0	0	0	0	0	0	0	0	0	0	0	;
    37	0	0	0	0	0	0	0	0	0	0	0	0	0	0	0	0	0	0	0	0	;
    38	0	0	0	0	0	0	0	0	0	0	0	0	0	0	0	0	0	0	0	0	;
    39	0	0	0	0	0	0	0	0	0	0	0	0	0	0	0	0	0	0	0	0	;
    41	0	0	0	0	0	0	0	0	0	0	0	0	0	0	0	0	0	0	0	0	;
    42	0	0	0	0	0	0	0	0	0	0	0	0	0	0	0	0	0	0	0	0	;
    44	0	0	0	0	0	0	0	0	0	0	0	0	0	0	0	0	0	0	0	0	;
    45	0	0	0	0	0	0	0	0	0	0	0	0	0	0	0	0	0	0	0	0	;
    47	0	0	0	0	0	0	0	0	0	0	0	0	0	0	0	0	0	0	0	0	;
    48	0	0	0	0	0	0	0	0	0	0	0	0	0	0	0	0	0	0	0	0	;
    49	0	0	0	0	0	0	0	0	0	0	0	0	0	0	0	0	0	0	0	0	;
    50	0	0	0	0	0	0	0	0	0	0	0	0	0	0	0	0	0	0	0	0	;
    52	0	0	0	0	0	0	0	0	0	0	0	0	0	0	0	0	0	0	0	0	;
    53	0	0	0	0	0	0	0	0	0	0	0	0	0	0	0	0	0	0	0	0	;
    58	0	0	0	0	0	0	0	0	0	0	0	0	0	0	0	0	0	0	0	0	;
    59	0	0	0	0	0	0	0	0	0	0	0	0	0	0	0	0	0	0	0	0	;
    60	0	0	0	0	0	0	0	0	0	0	0	0	0	0	0	0	0	0	0	0	;
    63	0	0	0	0	0	0	0	0	0	0	0	0	0	0	0	0	0	0	0	0	;
    65	0	0	0	0	0	0	0	0	0	0	0	0	0	0	0	0	0	0	0	0	;
    68	0	0	0	0	0	0	0	0	0	0	0	0	0	0	0	0	0	0	0	0	;
    73	0	0	0	0	0	0	0	0	0	0	0	0	0	0	0	0	0	0	0	0	;
    74	0	0	0	0	0	0	0	0	0	0	0	0	0	0	0	0	0	0	0	0	;
    75	0	0	0	0	0	0	0	0	0	0	0	0	0	0	0	0	0	0	0	0	;
    76	0	0	0	0	0	0	0	0	0	0	0	0	0	0	0	0	0	0	0	0	;
    80	0	0	0	0	0	0	0	0	0	0	0	0	0	0	0	0	0	0	0	0	;
    82	0	0	0	0	0	0	0	0	0	0	0	0	0	0	0	0	0	0	0	0	;
    83	0	0	0	0	0	0	0	0	0	0	0	0	0	0	0	0	0	0	0	0	;
    86	0	0	0	0	0	0	0	0	0	0	0	0	0	0	0	0	0	0	0	0	;
    89	0	0	0	0	0	0	0	0	0	0	0	0	0	0	0	0	0	0	0	0	;
    90	0	0	0	0	0	0	0	0	0	0	0	0	0	0	0	0	0	0	0	0	;
    92	0	0	0	0	0	0	0	0	0	0	0	0	0	0	0	0	0	0	0	0	;
    94	0	0	0	0	0	0	0	0	0	0	0	0	0	0	0	0	0	0	0	0	;
    99	0	0	0	0	0	0	0	0	0	0	0	0	0	0	0	0	0	0	0	0	;
    100	0	0	0	0	0	0	0	0	0	0	0	0	0	0	0	0	0	0	0	0	;
    105	0	0	0	0	0	0	0	0	0	0	0	0	0	0	0	0	0	0	0	0	;
    108	0	0	0	0	0	0	0	0	0	0	0	0	0	0	0	0	0	0	0	0	;
    115	0	0	0	0	0	0	0	0	0	0	0	0	0	0	0	0	0	0	0	0	;
    116	0	0	0	0	0	0	0	0	0	0	0	0	0	0	0	0	0	0	0	0	;
    117	0	0	0	0	0	0	0	0	0	0	0	0	0	0	0	0	0	0	0	0	;
    121	0	0	0	0	0	0	0	0	0	0	0	0	0	0	0	0	0	0	0	0	;
    122	0	0	0	0	0	0	0	0	0	0	0	0	0	0	0	0	0	0	0	0	;
    124	0	0	0	0	0	0	0	0	0	0	0	0	0	0	0	0	0	0	0	0	;
    125	0	0	0	0	0	0	0	0	0	0	0	0	0	0	0	0	0	0	0	0	;
    126	0	0	0	0	0	0	0	0	0	0	0	0	0	0	0	0	0	0	0	0	;
    129	0	0	0	0	0	0	0	0	0	0	0	0	0	0	0	0	0	0	0	0	;
    130	0	0	0	0	0	0	0	0	0	0	0	0	0	0	0	0	0	0	0	0	;
    132	0	0	0	0	0	0	0	0	0	0	0	0	0	0	0	0	0	0	0	0	;
    134	0	0	0	0	0	0	0	0	0	0	0	0	0	0	0	0	0	0	0	0	;
    138	0	0	0	0	0	0	0	0	0	0	0	0	0	0	0	0	0	0	0	0	;
    139	0	0	0	0	0	0	0	0	0	0	0	0	0	0	0	0	0	0	0	0	;
    141	0	0	0	0	0	0	0	0	0	0	0	0	0	0	0	0	0	0	0	0	;
    142	0	0	0	0	0	0	0	0	0	0	0	0	0	0	0	0	0	0	0	0	;
    143	0	0	0	0	0	0	0	0	0	0	0	0	0	0	0	0	0	0	0	0	;
    144	0	0	0	0	0	0	0	0	0	0	0	0	0	0	0	0	0	0	0	0	;
    149	0	0	0	0	0	0	0	0	0	0	0	0	0	0	0	0	0	0	0	0	;
    151	0	0	0	0	0	0	0	0	0	0	0	0	0	0	0	0	0	0	0	0	;
    157	0	0	0	0	0	0	0	0	0	0	0	0	0	0	0	0	0	0	0	0	;
    159	0	0	0	0	0	0	0	0	0	0	0	0	0	0	0	0	0	0	0	0	;
    160	0	0	0	0	0	0	0	0	0	0	0	0	0	0	0	0	0	0	0	0	;
    162	0	0	0	0	0	0	0	0	0	0	0	0	0	0	0	0	0	0	0	0	;
    164	0	0	0	0	0	0	0	0	0	0	0	0	0	0	0	0	0	0	0	0	;
    165	0	0	0	0	0	0	0	0	0	0	0	0	0	0	0	0	0	0	0	0	;
    166	0	0	0	0	0	0	0	0	0	0	0	0	0	0	0	0	0	0	0	0	;
    168	0	0	0	0	0	0	0	0	0	0	0	0	0	0	0	0	0	0	0	0	;
    169	0	0	0	0	0	0	0	0	0	0	0	0	0	0	0	0	0	0	0	0	;
    170	0	0	0	0	0	0	0	0	0	0	0	0	0	0	0	0	0	0	0	0	;
    171	0	0	0	0	0	0	0	0	0	0	0	0	0	0	0	0	0	0	0	0	;
    172	0	0	0	0	0	0	0	0	0	0	0	0	0	0	0	0	0	0	0	0	;
    174	0	0	0	0	0	0	0	0	0	0	0	0	0	0	0	0	0	0	0	0	;
    177	0	0	0	0	0	0	0	0	0	0	0	0	0	0	0	0	0	0	0	0	;
    180	0	0	0	0	0	0	0	0	0	0	0	0	0	0	0	0	0	0	0	0	;
    183	0	0	0	0	0	0	0	0	0	0	0	0	0	0	0	0	0	0	0	0	;
    184	0	0	0	0	0	0	0	0	0	0	0	0	0	0	0	0	0	0	0	0	;
    186	0	0	0	0	0	0	0	0	0	0	0	0	0	0	0	0	0	0	0	0	;
    188	0	0	0	0	0	0	0	0	0	0	0	0	0	0	0	0	0	0	0	0	;
    195	0	0	0	0	0	0	0	0	0	0	0	0	0	0	0	0	0	0	0	0	;
    196	0	0	0	0	0	0	0	0	0	0	0	0	0	0	0	0	0	0	0	0	;
    197	0	0	0	0	0	0	0	0	0	0	0	0	0	0	0	0	0	0	0	0	;
    199	0	0	0	0	0	0	0	0	0	0	0	0	0	0	0	0	0	0	0	0	;
    200	0	0	0	0	0	0	0	0	0	0	0	0	0	0	0	0	0	0	0	0	;
    201	0	0	0	0	0	0	0	0	0	0	0	0	0	0	0	0	0	0	0	0	;
    212	0	0	0	0	0	0	0	0	0	0	0	0	0	0	0	0	0	0	0	0	;
    217	0	0	0	0	0	0	0	0	0	0	0	0	0	0	0	0	0	0	0	0	;
    218	0	0	0	0	0	0	0	0	0	0	0	0	0	0	0	0	0	0	0	0	;
    219	0	0	0	0	0	0	0	0	0	0	0	0	0	0	0	0	0	0	0	0	;
    220	0	0	0	0	0	0	0	0	0	0	0	0	0	0	0	0	0	0	0	0	;
    223	0	0	0	0	0	0	0	0	0	0	0	0	0	0	0	0	0	0	0	0	;
    226	0	0	0	0	0	0	0	0	0	0	0	0	0	0	0	0	0	0	0	0	;
    227	0	0	0	0	0	0	0	0	0	0	0	0	0	0	0	0	0	0	0	0	;
    228	0	0	0	0	0	0	0	0	0	0	0	0	0	0	0	0	0	0	0	0	;
    231	0	0	0	0	0	0	0	0	0	0	0	0	0	0	0	0	0	0	0	0	;
    232	0	0	0	0	0	0	0	0	0	0	0	0	0	0	0	0	0	0	0	0	;
    235	0	0	0	0	0	0	0	0	0	0	0	0	0	0	0	0	0	0	0	0	;
    237	0	0	0	0	0	0	0	0	0	0	0	0	0	0	0	0	0	0	0	0	;
    238	0	0	0	0	0	0	0	0	0	0	0	0	0	0	0	0	0	0	0	0	;
    240	0	0	0	0	0	0	0	0	0	0	0	0	0	0	0	0	0	0	0	0	;
    241	0	0	0	0	0	0	0	0	0	0	0	0	0	0	0	0	0	0	0	0	;
    242	0	0	0	0	0	0	0	0	0	0	0	0	0	0	0	0	0	0	0	0	;
    245	0	0	0	0	0	0	0	0	0	0	0	0	0	0	0	0	0	0	0	0	;
    246	0	0	0	0	0	0	0	0	0	0	0	0	0	0	0	0	0	0	0	0	;
    249	0	0	0	0	0	0	0	0	0	0	0	0	0	0	0	0	0	0	0	0	;
    254	0	0	0	0	0	0	0	0	0	0	0	0	0	0	0	0	0	0	0	0	;
    258	0	0	0	0	0	0	0	0	0	0	0	0	0	0	0	0	0	0	0	0	;
    259	0	0	0	0	0	0	0	0	0	0	0	0	0	0	0	0	0	0	0	0	;
    265	0	0	0	0	0	0	0	0	0	0	0	0	0	0	0	0	0	0	0	0	;
    266	0	0	0	0	0	0	0	0	0	0	0	0	0	0	0	0	0	0	0	0	;
    273	0	0	0	0	0	0	0	0	0	0	0	0	0	0	0	0	0	0	0	0	;
    274	0	0	0	0	0	0	0	0	0	0	0	0	0	0	0	0	0	0	0	0	;
    275	0	0	0	0	0	0	0	0	0	0	0	0	0	0	0	0	0	0	0	0	;
    277	0	0	0	0	0	0	0	0	0	0	0	0	0	0	0	0	0	0	0	0	;
    279	0	0	0	0	0	0	0	0	0	0	0	0	0	0	0	0	0	0	0	0	;
    283	0	0	0	0	0	0	0	0	0	0	0	0	0	0	0	0	0	0	0	0	;
    284	0	0	0	0	0	0	0	0	0	0	0	0	0	0	0	0	0	0	0	0	;
    287	0	0	0	0	0	0	0	0	0	0	0	0	0	0	0	0	0	0	0	0	;
    288	0	0	0	0	0	0	0	0	0	0	0	0	0	0	0	0	0	0	0	0	;
    290	0	0	0	0	0	0	0	0	0	0	0	0	0	0	0	0	0	0	0	0	;
    291	0	0	0	0	0	0	0	0	0	0	0	0	0	0	0	0	0	0	0	0	;
    292	0	0	0	0	0	0	0	0	0	0	0	0	0	0	0	0	0	0	0	0	;
    293	0	0	0	0	0	0	0	0	0	0	0	0	0	0	0	0	0	0	0	0	;
    295	0	0	0	0	0	0	0	0	0	0	0	0	0	0	0	0	0	0	0	0	;
    297	0	0	0	0	0	0	0	0	0	0	0	0	0	0	0	0	0	0	0	0	;
    298	0	0	0	0	0	0	0	0	0	0	0	0	0	0	0	0	0	0	0	0	;
    302	0	0	0	0	0	0	0	0	0	0	0	0	0	0	0	0	0	0	0	0	;
    303	0	0	0	0	0	0	0	0	0	0	0	0	0	0	0	0	0	0	0	0	;
    304	0	0	0	0	0	0	0	0	0	0	0	0	0	0	0	0	0	0	0	0	;
    306	0	0	0	0	0	0	0	0	0	0	0	0	0	0	0	0	0	0	0	0	;
    309	0	0	0	0	0	0	0	0	0	0	0	0	0	0	0	0	0	0	0	0	;
    312	0	0	0	0	0	0	0	0	0	0	0	0	0	0	0	0	0	0	0	0	;
    314	0	0	0	0	0	0	0	0	0	0	0	0	0	0	0	0	0	0	0	0	;
    316	0	0	0	0	0	0	0	0	0	0	0	0	0	0	0	0	0	0	0	0	;
    317	0	0	0	0	0	0	0	0	0	0	0	0	0	0	0	0	0	0	0	0	;
    318	0	0	0	0	0	0	0	0	0	0	0	0	0	0	0	0	0	0	0	0	;
    324	0	0	0	0	0	0	0	0	0	0	0	0	0	0	0	0	0	0	0	0	;
    329	0	0	0	0	0	0	0	0	0	0	0	0	0	0	0	0	0	0	0	0	;
    330	0	0	0	0	0	0	0	0	0	0	0	0	0	0	0	0	0	0	0	0	;
    332	0	0	0	0	0	0	0	0	0	0	0	0	0	0	0	0	0	0	0	0	;
    333	0	0	0	0	0	0	0	0	0	0	0	0	0	0	0	0	0	0	0	0	;
    336	0	0	0	0	0	0	0	0	0	0	0	0	0	0	0	0	0	0	0	0	;
    337	0	0	0	0	0	0	0	0	0	0	0	0	0	0	0	0	0	0	0	0	;
    339	0	0	0	0	0	0	0	0	0	0	0	0	0	0	0	0	0	0	0	0	;
    340	0	0	0	0	0	0	0	0	0	0	0	0	0	0	0	0	0	0	0	0	;
    342	0	0	0	0	0	0	0	0	0	0	0	0	0	0	0	0	0	0	0	0	;
    343	0	0	0	0	0	0	0	0	0	0	0	0	0	0	0	0	0	0	0	0	;
    346	0	0	0	0	0	0	0	0	0	0	0	0	0	0	0	0	0	0	0	0	;
    347	0	0	0	0	0	0	0	0	0	0	0	0	0	0	0	0	0	0	0	0	;
    348	0	0	0	0	0	0	0	0	0	0	0	0	0	0	0	0	0	0	0	0	;
    350	0	0	0	0	0	0	0	0	0	0	0	0	0	0	0	0	0	0	0	0	;
    351	0	0	0	0	0	0	0	0	0	0	0	0	0	0	0	0	0	0	0	0	;
    354	0	0	0	0	0	0	0	0	0	0	0	0	0	0	0	0	0	0	0	0	;
    358	0	0	0	0	0	0	0	0	0	0	0	0	0	0	0	0	0	0	0	0	;
    361	0	0	0	0	0	0	0	0	0	0	0	0	0	0	0	0	0	0	0	0	;
    362	0	0	0	0	0	0	0	0	0	0	0	0	0	0	0	0	0	0	0	0	;
    370	0	0	0	0	0	0	0	0	0	0	0	0	0	0	0	0	0	0	0	0	;
    372	0	0	0	0	0	0	0	0	0	0	0	0	0	0	0	0	0	0	0	0	;
    373	0	0	0	0	0	0	0	0	0	0	0	0	0	0	0	0	0	0	0	0	;
    374	0	0	0	0	0	0	0	0	0	0	0	0	0	0	0	0	0	0	0	0	;
    376	0	0	0	0	0	0	0	0	0	0	0	0	0	0	0	0	0	0	0	0	;
    377	0	0	0	0	0	0	0	0	0	0	0	0	0	0	0	0	0	0	0	0	;
    378	0	0	0	0	0	0	0	0	0	0	0	0	0	0	0	0	0	0	0	0	;
    379	0	0	0	0	0	0	0	0	0	0	0	0	0	0	0	0	0	0	0	0	;
    380	0	0	0	0	0	0	0	0	0	0	0	0	0	0	0	0	0	0	0	0	;
    381	0	0	0	0	0	0	0	0	0	0	0	0	0	0	0	0	0	0	0	0	;
    384	0	0	0	0	0	0	0	0	0	0	0	0	0	0	0	0	0	0	0	0	;
    388	0	0	0	0	0	0	0	0	0	0	0	0	0	0	0	0	0	0	0	0	;
    390	0	0	0	0	0	0	0	0	0	0	0	0	0	0	0	0	0	0	0	0	;
    392	0	0	0	0	0	0	0	0	0	0	0	0	0	0	0	0	0	0	0	0	;
    393	0	0	0	0	0	0	0	0	0	0	0	0	0	0	0	0	0	0	0	0	;
    396	0	0	0	0	0	0	0	0	0	0	0	0	0	0	0	0	0	0	0	0	;
    397	0	0	0	0	0	0	0	0	0	0	0	0	0	0	0	0	0	0	0	0	;
    398	0	0	0	0	0	0	0	0	0	0	0	0	0	0	0	0	0	0	0	0	;
    400	0	0	0	0	0	0	0	0	0	0	0	0	0	0	0	0	0	0	0	0	;
    409	0	0	0	0	0	0	0	0	0	0	0	0	0	0	0	0	0	0	0	0	;
    413	0	0	0	0	0	0	0	0	0	0	0	0	0	0	0	0	0	0	0	0	;
    414	0	0	0	0	0	0	0	0	0	0	0	0	0	0	0	0	0	0	0	0	;
    417	0	0	0	0	0	0	0	0	0	0	0	0	0	0	0	0	0	0	0	0	;
    420	0	0	0	0	0	0	0	0	0	0	0	0	0	0	0	0	0	0	0	0	;
    425	0	0	0	0	0	0	0	0	0	0	0	0	0	0	0	0	0	0	0	0	;
...
];

% branch data
%	fbus	tbus	r	x	b	rateA	rateB	rateC	ratio	angle	status	angmin	angmax
mpc.branch = [
	1074	802	0.00018	0.000781	0	0	0	0	0	0	1	-360	360	;
    652	1103	0.002961	0.01669	0	319	0	0	0	0	1	-360	360	;
    856	592	0.00056	0.00432	0	0	0	0	0	0	1	-360	360	;
    977	880	0.0002	0.00246	0	657	0	0	0	0	1	-360	360	;
    977	1007	0.0003	0.00377	0	1315	0	0	0	0	1	-360	360	;
    747	1330	0.00014	0.00057	0	0	0	0	0	0	1	-360	360	;
    432	1330	0.00013	0.000729	0	0	0	0	0	0	1	-360	360	;
    205	1330	0.00012	0.000581	0	0	0	0	0	0	1	-360	360	;
    270	1330	0.00011	0.00064	0	0	0	0	0	0	1	-360	360	;
    1206	1330	0.00019	0.00056	0	0	0	0	0	0	1	-360	360	;
    902	1271	0.00062	0.004909	0	529	0	0	0	0	1	-360	360	;
    1349	1140	7.00E-05	0.00076	0	887	0	0	0	0	1	-360	360	;
    1349	1310	0.00066	0.00622	0	1611	0	0	0	0	1	-360	360	;
    1349	313	0.00054	0.00752	0	0	0	0	0	0	1	-360	360	;
    1349	7	0.00105	0.00877	0	1315	0	0	0	0	1	-360	360	;
    16	1297	8.00E-05	0.00091	0	657	0	0	0	0	1	-360	360	;
    16	691	0.00056	0.00719	0	953	0	0	0	0	1	-360	360	;
    356	819	0.000531	0.002039	0	319	0	0	0	0	1	-360	360	;
    356	720	0.008659	0.03769	0	300	0	0	0	0	1	-360	360	;
    356	1304	0.003849	0.021099	0	0	0	0	0	0	1	-360	360	;
    356	1235	0.00688	0.035969	0	300	0	0	0	0	1	-360	360	;
    356	1000	0.006729	0.03713	0	0	0	0	0	0	1	-360	360	;
    356	505	0.00111	0.006651	0	414	0	0	0	0	1	-360	360	;
    356	82	0.0023	0.008909	0	0	0	0	0	0	1	-360	360	;
    356	382	0.000841	0.00313	0	0	0	0	0	0	1	-360	360	;
    356	785	0.003521	0.017479	0	300	0	0	0	0	1	-360	360	;
    455	90	3.90E-05	0.00025	0	510	0	0	0	0	1	-360	360	;
    452	340	0.000159	0.000729	0	357	0	0	0	0	1	-360	360	;
    1248	1088	0.005281	0.032099	0	395	0	0	0	0	1	-360	360	;
    1248	1088	0.005651	0.029419	0	376	0	0	0	0	1	-360	360	;
    121	550	0.000271	0.00036	0	0	0	0	0	0	1	-360	360	;
    1264	1027	0.00044	0.00143	0	472	0	0	0	0	1	-360	360	;
    1264	591	0.000159	0.00074	0	453	0	0	0	0	1	-360	360	;
    330	288	0.00019	0.000591	0	338	0	0	0	0	1	-360	360	;
    758	431	0.00019	0.00087	0	0	0	0	0	0	1	-360	360	;
    956	732	0.002591	0.013659	0	319	0	0	0	0	1	-360	360	;
    956	1066	0.00305	0.01168	0	0	0	0	0	0	1	-360	360	;
    51	156	0.000159	0.000599	0	433	0	0	0	0	1	-360	360	;
    51	156	0.000159	0.00062	0	395	0	0	0	0	1	-360	360	;
    488	732	0.00101	0.004229	0	472	0	0	0	0	1	-360	360	;
    488	647	0.00319	0.018651	0	453	0	0	0	0	1	-360	360	;
    488	1066	0.000729	0.00337	0	0	0	0	0	0	1	-360	360	;
    162	170	0.002961	0.012831	0	281	0	0	0	0	1	-360	360	;
    162	1158	0.000591	0.00339	0	0	0	0	0	0	1	-360	360	;
    1296	353	0.00024	0.001219	0	0	0	0	0	0	1	-360	360	;
    883	441	0.006219	0.036341	0	376	0	0	0	0	1	-360	360	;
    883	879	0.001841	0.01193	0	472	0	0	0	0	1	-360	360	;
    491	1058	0.001409	0.01113	0	414	0	0	0	0	1	-360	360	;
    491	37	0.00151	0.00768	0	376	0	0	0	0	1	-360	360	;
    491	456	0.00599	0.03313	0	395	0	0	0	0	1	-360	360	;
    491	502	0.001771	0.010151	0	357	0	0	0	0	1	-360	360	;
    701	734	0.00074	0.00311	0	0	0	0	0	0	1	-360	360	;
    701	734	0.000729	0.003159	0	0	0	0	0	0	1	-360	360	;
    480	1136	0.005271	0.01906	0	281	0	0	0	0	1	-360	360	;
    480	803	0.00906	0.053151	0	319	0	0	0	0	1	-360	360	;
    480	272	0.00405	0.0153	0	0	0	0	0	0	1	-360	360	;
    984	795	0.00055	0.003961	0	395	0	0	0	0	1	-360	360	;
    984	795	0.00055	0.003729	0	338	0	0	0	0	1	-360	360	;
    984	236	0.00107	0.007789	0	414	0	0	0	0	1	-360	360	;
    984	236	0.00112	0.00775	0	472	0	0	0	0	1	-360	360	;
    984	236	0.001031	0.00775	0	0	0	0	0	0	1	-360	360	;
    984	359	0.00062	0.003219	0	0	0	0	0	0	1	-360	360	;
    984	130	0.00068	0.002659	0	414	0	0	0	0	1	-360	360	;
    1336	61	0.00193	0.012479	0	491	0	0	0	0	1	-360	360	;
    1336	446	0.001159	0.007229	0	0	0	0	0	0	1	-360	360	;
    1336	437	0.00137	0.008729	0	395	0	0	0	0	1	-360	360	;
    1336	437	0.001401	0.00855	0	433	0	0	0	0	1	-360	360	;
    1336	437	0.001331	0.008521	0	433	0	0	0	0	1	-360	360	;
    1031	324	0.00031	0.00081	0	281	0	0	0	0	1	-360	360	;
    1031	1174	0.000341	0.00119	0	281	0	0	0	0	1	-360	360	;
    1031	671	0.00031	0.001281	0	376	0	0	0	0	1	-360	360	;
    1031	643	0.00094	0.0035	0	433	0	0	0	0	1	-360	360	;
    1236	1025	7.00E-05	0.000651	0	0	0	0	0	0	1	-360	360	;
    808	552	0.00019	0.00124	0	491	0	0	0	0	1	-360	360	;
    808	431	0.000331	0.002539	0	433	0	0	0	0	1	-360	360	;
    471	428	0.0016	0.02113	0	0	0	0	0	0	1	-360	360	;
    1128	780	0.000909	0.004711	0	357	0	0	0	0	1	-360	360	;
    1128	780	0.00088	0.004969	0	319	0	0	0	0	1	-360	360	;
    1	1254	0.001841	0.0088	0	0	0	0	0	0	1	-360	360	;
    1	1184	0.01013	0.04238	0	395	0	0	0	0	1	-360	360	;
    1060	435	0.00059	0.00802	0	723	0	0	0	0	1	-360	360	;
    1060	435	0.00054	0.0079	0	657	0	0	0	0	1	-360	360	;
    1060	593	0.00171	0.02128	0	986	0	0	0	0	1	-360	360	;
    1060	593	0.00174	0.02084	0	854	0	0	0	0	1	-360	360	;
    1060	951	0.00086	0.01433	0	1151	0	0	0	0	1	-360	360	;
    1060	951	0.00087	0.01404	0	723	0	0	0	0	1	-360	360	;
    1060	579	0.00126	0.01447	0	1118	0	0	0	0	1	-360	360	;
    1060	834	0.00122	0.01509	0	1052	0	0	0	0	1	-360	360	;
    1060	834	0.00154	0.019	0	1282	0	0	0	0	1	-360	360	;
    732	729	0.00474	0.03564	0	472	0	0	0	0	1	-360	360	;
    732	871	0.006	0.047849	0	433	0	0	0	0	1	-360	360	;
    732	768	0.008039	0.03375	0	281	0	0	0	0	1	-360	360	;
    996	1066	2.10E-05	0.000211	0	510	0	0	0	0	1	-360	360	;
    1202	557	0.00045	0.002341	0	0	0	0	0	0	1	-360	360	;
    400	1273	0.000669	0.004281	0	433	0	0	0	0	1	-360	360	;
    1354	1273	0.00068	0.00419	0	0	0	0	0	0	1	-360	360	;
    462	1037	0.000729	0.00431	0	510	0	0	0	0	1	-360	360	;
    462	1037	0.000591	0.004651	0	453	0	0	0	0	1	-360	360	;
    462	1289	0.00099	0.005081	0	338	0	0	0	0	1	-360	360	;
    227	1108	0.00212	0.013031	0	0	0	0	0	0	1	-360	360	;
    227	529	0.002159	0.01275	0	0	0	0	0	0	1	-360	360	;
    1256	559	0.00025	0.00095	0	0	0	0	0	0	1	-360	360	;
    1256	559	0.000271	0.00089	0	0	0	0	0	0	1	-360	360	;
    1256	407	0.001961	0.012409	0	281	0	0	0	0	1	-360	360	;
    1256	1205	0.00044	0.00207	0	472	0	0	0	0	1	-360	360	;
    1256	1233	0.000469	0.00143	0	529	0	0	0	0	1	-360	360	;
    1256	950	0.001271	0.01406	0	529	0	0	0	0	1	-360	360	;
    1256	950	0.00124	0.013021	0	529	0	0	0	0	1	-360	360	;
    1256	1305	0.000409	0.00239	0	0	0	0	0	0	1	-360	360	;
    1256	31	0.00094	0.005	0	338	0	0	0	0	1	-360	360	;
    1256	438	0.000219	0.0007	0	529	0	0	0	0	1	-360	360	;
    1256	980	6.00E-05	0.00025	0	0	0	0	0	0	1	-360	360	;
    1256	774	5.00E-05	0.000229	0	0	0	0	0	0	1	-360	360	;
    569	398	0.00019	0.000909	0	0	0	0	0	0	1	-360	360	;
    331	820	0.001711	0.00782	0	0	0	0	0	0	1	-360	360	;
    331	986	0.002651	0.01176	0	319	0	0	0	0	1	-360	360	;
    1127	55	0.001409	0.010599	0	0	0	0	0	0	1	-360	360	;
    1127	781	0.001419	0.010219	0	0	0	0	0	0	1	-360	360	;
    112	593	0.00013	0.00212	0	756	0	0	0	0	1	-360	360	;
    112	109	0.00026	0.00313	0	1282	0	0	0	0	1	-360	360	;
    676	332	0.0047	0.0318	0	376	0	0	0	0	1	-360	360	;
    676	983	0.00136	0.00768	0	338	0	0	0	0	1	-360	360	;
    676	526	0.005669	0.027789	0	300	0	0	0	0	1	-360	360	;
    1061	911	0.004409	0.033091	0	281	0	0	0	0	1	-360	360	;
    1061	204	0.01056	0.044469	0	0	0	0	0	0	1	-360	360	;
    1061	1042	0.01963	0.07736	0	338	0	0	0	0	1	-360	360	;
    1061	1083	0.01157	0.04694	0	357	0	0	0	0	1	-360	360	;
    885	116	0.000479	0.00255	0	357	0	0	0	0	1	-360	360	;
    1107	116	0.000469	0.00236	0	0	0	0	0	0	1	-360	360	;
    171	218	0.01237	0.067039	0	281	0	0	0	0	1	-360	360	;
    171	1234	0.0132	0.056229	0	281	0	0	0	0	1	-360	360	;
    602	619	0.00026	0.001711	0	0	0	0	0	0	1	-360	360	;
    602	619	0.000271	0.001669	0	0	0	0	0	0	1	-360	360	;
    993	782	0.000211	0.000401	0	0	0	0	0	0	1	-360	360	;
    1199	857	0.00105	0.005159	0	0	0	0	0	0	1	-360	360	;
    1035	985	0.00212	0.00931	0	319	0	0	0	0	1	-360	360	;
    80	982	0.000151	0.00068	0	0	0	0	0	0	1	-360	360	;
    798	730	0.00019	0.00082	0	0	0	0	0	0	1	-360	360	;
    757	986	0.003219	0.01405	0	300	0	0	0	0	1	-360	360	;
    966	1339	0.007271	0.033159	0	281	0	0	0	0	1	-360	360	;
    966	1171	0.006659	0.03132	0	300	0	0	0	0	1	-360	360	;
    511	414	0.00057	0.00668	0	1480	0	0	0	0	1	-360	360	;
    511	1029	0.00057	0.00758	0	1414	0	0	0	0	1	-360	360	;
    511	1029	0.00039	0.00607	0	821	0	0	0	0	1	-360	360	;
    511	239	0.00155	0.0179	0	0	0	0	0	0	1	-360	360	;
    511	690	0.00036	0.00485	0	1545	0	0	0	0	1	-360	360	;
    888	245	0.000581	0.004229	0	338	0	0	0	0	1	-360	360	;
    888	1185	0.00056	0.00431	0	0	0	0	0	0	1	-360	360	;
    888	858	0.003099	0.020531	0	472	0	0	0	0	1	-360	360	;
    888	476	0.00118	0.016919	0	510	0	0	0	0	1	-360	360	;
    888	778	0.00188	0.01407	0	0	0	0	0	0	1	-360	360	;
    888	728	0.00545	0.04082	0	357	0	0	0	0	1	-360	360	;
    1058	55	0.00214	0.01639	0	453	0	0	0	0	1	-360	360	;
    1058	710	0.002479	0.01549	0	0	0	0	0	0	1	-360	360	;
    1164	1313	0.000159	0.001229	0	472	0	0	0	0	1	-360	360	;
    1164	963	0.00026	0.00162	0	453	0	0	0	0	1	-360	360	;
    1164	1006	0.000159	0.00113	0	376	0	0	0	0	1	-360	360	;
    1164	1281	0.000461	0.003219	0	472	0	0	0	0	1	-360	360	;
    1164	634	0.000159	0.001229	0	0	0	0	0	0	1	-360	360	;
    233	61	0.000229	0.00139	0	376	0	0	0	0	1	-360	360	;
    412	61	0.0002	0.00156	0	338	0	0	0	0	1	-360	360	;
    193	63	0.00145	0.00824	0	281	0	0	0	0	1	-360	360	;
    193	61	0.00069	0.005	0	491	0	0	0	0	1	-360	360	;
    118	558	0.00036	0.00455	0	1809	0	0	0	0	1	-360	360	;
    118	558	0.00036	0.00453	0	1776	0	0	0	0	1	-360	360	;
    1203	1102	0.00066	0.00997	0	1348	0	0	0	0	1	-360	360	;
    1203	1102	0.00064	0.01016	0	986	0	0	0	0	1	-360	360	;
    914	718	9.90E-05	0.00044	0	529	0	0	0	0	1	-360	360	;
    718	663	6.00E-05	0.000469	0	0	0	0	0	0	1	-360	360	;
    718	234	3.90E-05	0.000341	0	0	0	0	0	0	1	-360	360	;
    718	1012	0.002531	0.01943	0	433	0	0	0	0	1	-360	360	;
    718	1037	0.00945	0.06418	0	414	0	0	0	0	1	-360	360	;
    1332	32	0.000591	0.002831	0	357	0	0	0	0	1	-360	360	;
    1019	32	0.00087	0.00387	0	0	0	0	0	0	1	-360	360	;
    91	784	0.0015	0.01785	0	1183	0	0	0	0	1	-360	360	;
    91	784	0.00147	0.0182	0	1151	0	0	0	0	1	-360	360	;
    249	81	0.00151	0.0113	0	376	0	0	0	0	1	-360	360	;
    249	81	0.001479	0.011521	0	395	0	0	0	0	1	-360	360	;
    249	1333	0.00174	0.010341	0	414	0	0	0	0	1	-360	360	;
    249	1333	0.001659	0.01206	0	453	0	0	0	0	1	-360	360	;
    1189	291	0.00069	0.000479	0	0	0	0	0	0	1	-360	360	;
    1189	1163	0.00044	0.00139	0	0	0	0	0	0	1	-360	360	;
    142	1183	0.002039	0.01601	0	0	0	0	0	0	1	-360	360	;
    142	1086	0.01349	0.05662	0	357	0	0	0	0	1	-360	360	;
    142	39	0.00082	0.00438	0	300	0	0	0	0	1	-360	360	;
    142	39	0.0008	0.004461	0	281	0	0	0	0	1	-360	360	;
    142	755	0.001091	0.00888	0	453	0	0	0	0	1	-360	360	;
    142	755	0.00111	0.007039	0	491	0	0	0	0	1	-360	360	;
    373	1220	0.000849	0.00537	0	433	0	0	0	0	1	-360	360	;
    1251	1295	0.00061	0.00275	0	357	0	0	0	0	1	-360	360	;
    900	1119	0.00141	0.0188	0	1315	0	0	0	0	1	-360	360	;
    900	955	0.00121	0.01427	0	1545	0	0	0	0	1	-360	360	;
    484	1181	0.001711	0.007159	0	338	0	0	0	0	1	-360	360	;
    484	1272	0.00545	0.02381	0	300	0	0	0	0	1	-360	360	;
    484	630	0.000771	0.004331	0	0	0	0	0	0	1	-360	360	;
    484	405	0.00414	0.03282	0	453	0	0	0	0	1	-360	360	;
    484	917	0.00264	0.011521	0	338	0	0	0	0	1	-360	360	;
    484	926	0.00261	0.011	0	376	0	0	0	0	1	-360	360	;
    484	1098	0.00239	0.00919	0	319	0	0	0	0	1	-360	360	;
    484	424	0.000539	0.00226	0	0	0	0	0	0	1	-360	360	;
...
];

%%-----  OPF Data  -----%%
% generator cost data
%	1	startup	shutdown	n	x1	y1	...	xn	yn
%	2	startup	shutdown	n	c(n-1)	...	c0
mpc.gencost = [
	2	0	0	2	0	0	;
    2	0	0	2	0	0	;
    2	0	0	2	0	0	;
    2	0	0	2	0	0	;
    2	0	0	2	0	0	;
    2	0	0	2	0	0	;
    2	0	0	2	0	0	;
    2	0	0	2	0	0	;
    2	0	0	2	0	0	;
    2	0	0	2	0	0	;
    2	0	0	2	0	0	;
    2	0	0	2	0	0	;
    2	0	0	2	0	0	;
    2	0	0	2	0	0	;
    2	0	0	2	0	0	;
    2	0	0	2	0	0	;
    2	0	0	2	0	0	;
    2	0	0	2	0	0	;
    2	0	0	2	0	0	;
    2	0	0	2	0	0	;
    2	0	0	2	0	0	;
    2	0	0	2	0	0	;
    2	0	0	2	0	0	;
    2	0	0	2	0	0	;
    2	0	0	2	0	0	;
    2	0	0	2	0	0	;
    2	0	0	2	0	0	;
    2	0	0	2	0	0	;
    2	0	0	2	0	0	;
    2	0	0	2	0	0	;
    2	0	0	2	0	0	;
    2	0	0	2	0	0	;
    2	0	0	2	0	0	;
    2	0	0	2	0	0	;
    2	0	0	2	0	0	;
    2	0	0	2	0	0	;
    2	0	0	2	0	0	;
    2	0	0	2	0	0	;
    2	0	0	2	0	0	;
    2	0	0	2	0	0	;
    2	0	0	2	0	0	;
    2	0	0	2	0	0	;
    2	0	0	2	0	0	;
    2	0	0	2	0	0	;
    2	0	0	2	0	0	;
    2	0	0	2	0	0	;
    2	0	0	2	0	0	;
    2	0	0	2	0	0	;
    2	0	0	2	0	0	;
    2	0	0	2	0	0	;
    2	0	0	2	0	0	;
    2	0	0	2	0	0	;
    2	0	0	2	0	0	;
    2	0	0	2	0	0	;
    2	0	0	2	0	0	;
    2	0	0	2	0	0	;
    2	0	0	2	0	0	;
    2	0	0	2	0	0	;
    2	0	0	2	0	0	;
    2	0	0	2	0	0	;
    2	0	0	2	0	0	;
    2	0	0	2	0	0	;
    2	0	0	2	0	0	;
    2	0	0	2	0	0	;
    2	0	0	2	0	0	;
    2	0	0	2	0	0	;
    2	0	0	2	0	0	;
    2	0	0	2	0	0	;
    2	0	0	2	0	0	;
    2	0	0	2	0	0	;
    2	0	0	2	0	0	;
    2	0	0	2	0	0	;
    2	0	0	2	0	0	;
    2	0	0	2	0	0	;
    2	0	0	2	0	0	;
    2	0	0	2	0	0	;
    2	0	0	2	0	0	;
    2	0	0	2	0	0	;
    2	0	0	2	0	0	;
    2	0	0	2	0	0	;
    2	0	0	2	0	0	;
    2	0	0	2	0	0	;
    2	0	0	2	0	0	;
    2	0	0	2	0	0	;
    2	0	0	2	0	0	;
    2	0	0	2	0	0	;
    2	0	0	2	0	0	;
    2	0	0	2	0	0	;
    2	0	0	2	0	0	;
    2	0	0	2	0	0	;
    2	0	0	2	0	0	;
    2	0	0	2	0	0	;
    2	0	0	2	0	0	;
    2	0	0	2	0	0	;
    2	0	0	2	0	0	;
    2	0	0	2	0	0	;
    2	0	0	2	0	0	;
    2	0	0	2	0	0	;
    2	0	0	2	0	0	;
    2	0	0	2	0	0	;
    2	0	0	2	0	0	;
    2	0	0	2	0	0	;
    2	0	0	2	0	0	;
    2	0	0	2	0	0	;
    2	0	0	2	0	0	;
    2	0	0	2	0	0	;
    2	0	0	2	0	0	;
    2	0	0	2	0	0	;
    2	0	0	2	0	0	;
    2	0	0	2	0	0	;
    2	0	0	2	0	0	;
    2	0	0	2	0	0	;
    2	0	0	2	0	0	;
    2	0	0	2	0	0	;
    2	0	0	2	0	0	;
    2	0	0	2	0	0	;
    2	0	0	2	0	0	;
    2	0	0	2	0	0	;
    2	0	0	2	0	0	;
    2	0	0	2	0	0	;
    2	0	0	2	0	0	;
    2	0	0	2	0	0	;
    2	0	0	2	0	0	;
    2	0	0	2	0	0	;
    2	0	0	2	0	0	;
    2	0	0	2	0	0	;
    2	0	0	2	0	0	;
    2	0	0	2	0	0	;
    2	0	0	2	0	0	;
    2	0	0	2	0	0	;
    2	0	0	2	0	0	;
    2	0	0	2	0	0	;
    2	0	0	2	0	0	;
    2	0	0	2	0	0	;
    2	0	0	2	0	0	;
    2	0	0	2	0	0	;
    2	0	0	2	0	0	;
    2	0	0	2	0	0	;
    2	0	0	2	0	0	;
    2	0	0	2	0	0	;
    2	0	0	2	0	0	;
    2	0	0	2	0	0	;
    2	0	0	2	0	0	;
    2	0	0	2	0	0	;
    2	0	0	2	0	0	;
    2	0	0	2	0	0	;
    2	0	0	2	0	0	;
    2	0	0	2	0	0	;
    2	0	0	2	0	0	;
    2	0	0	2	0	0	;
    2	0	0	2	0	0	;
    2	0	0	2	0	0	;
    2	0	0	2	0	0	;
    2	0	0	2	0	0	;
    2	0	0	2	0	0	;
    2	0	0	2	0	0	;
    2	0	0	2	0	0	;
    2	0	0	2	0	0	;
    2	0	0	2	0	0	;
    2	0	0	2	0	0	;
    2	0	0	2	0	0	;
    2	0	0	2	0	0	;
    2	0	0	2	0	0	;
    2	0	0	2	0	0	;
    2	0	0	2	0	0	;
    2	0	0	2	0	0	;
    2	0	0	2	0	0	;
    2	0	0	2	0	0	;
    2	0	0	2	0	0	;
    2	0	0	2	0	0	;
    2	0	0	2	0	0	;
    2	0	0	2	0	0	;
    2	0	0	2	0	0	;
    2	0	0	2	0	0	;
    2	0	0	2	0	0	;
    2	0	0	2	0	0	;
    2	0	0	2	0	0	;
    2	0	0	2	0	0	;
    2	0	0	2	0	0	;
    2	0	0	2	0	0	;
    2	0	0	2	0	0	;
    2	0	0	2	0	0	;
    2	0	0	2	0	0	;
    2	0	0	2	0	0	;
    2	0	0	2	0	0	;
    2	0	0	2	0	0	;
    2	0	0	2	0	0	;
    2	0	0	2	0	0	;
    2	0	0	2	0	0	;
    2	0	0	2	0	0	;
    2	0	0	2	0	0	;
    2	0	0	2	0	0	;
    2	0	0	2	0	0	;
    2	0	0	2	0	0	;
    2	0	0	2	0	0	;
    2	0	0	2	0	0	;
    2	0	0	2	0	0	;
    2	0	0	2	0	0	;
    2	0	0	2	0	0	;
    2	0	0	2	0	0	;
...
    % Dispatchable loads
    2	0	0	2	1.00E+06	0	;
    2	0	0	2	1.00E+06	0	;
    2	0	0	2	1.00E+06	0	;
    2	0	0	2	1.00E+06	0	;
    2	0	0	2	1.00E+06	0	;
    2	0	0	2	1.00E+06	0	;
    2	0	0	2	1.00E+06	0	;
    2	0	0	2	1.00E+06	0	;
    2	0	0	2	1.00E+06	0	;
    2	0	0	2	1.00E+06	0	;
    2	0	0	2	1.00E+06	0	;
    2	0	0	2	1.00E+06	0	;
    2	0	0	2	1.00E+06	0	;
    2	0	0	2	1.00E+06	0	;
    2	0	0	2	1.00E+06	0	;
    2	0	0	2	1.00E+06	0	;
    2	0	0	2	1.00E+06	0	;
    2	0	0	2	1.00E+06	0	;
    2	0	0	2	1.00E+06	0	;
    2	0	0	2	1.00E+06	0	;
    2	0	0	2	1.00E+06	0	;
    2	0	0	2	1.00E+06	0	;
    2	0	0	2	1.00E+06	0	;
    2	0	0	2	1.00E+06	0	;
    2	0	0	2	1.00E+06	0	;
    2	0	0	2	1.00E+06	0	;
    2	0	0	2	1.00E+06	0	;
    2	0	0	2	1.00E+06	0	;
    2	0	0	2	1.00E+06	0	;
    2	0	0	2	1.00E+06	0	;
    2	0	0	2	1.00E+06	0	;
    2	0	0	2	1.00E+06	0	;
    2	0	0	2	1.00E+06	0	;
    2	0	0	2	1.00E+06	0	;
    2	0	0	2	1.00E+06	0	;
    2	0	0	2	1.00E+06	0	;
    2	0	0	2	1.00E+06	0	;
    2	0	0	2	1.00E+06	0	;
    2	0	0	2	1.00E+06	0	;
    2	0	0	2	1.00E+06	0	;
    2	0	0	2	1.00E+06	0	;
    2	0	0	2	1.00E+06	0	;
    2	0	0	2	1.00E+06	0	;
    2	0	0	2	1.00E+06	0	;
    2	0	0	2	1.00E+06	0	;
    2	0	0	2	1.00E+06	0	;
    2	0	0	2	1.00E+06	0	;
    2	0	0	2	1.00E+06	0	;
    2	0	0	2	1.00E+06	0	;
    2	0	0	2	1.00E+06	0	;
    2	0	0	2	1.00E+06	0	;
    2	0	0	2	1.00E+06	0	;
    2	0	0	2	1.00E+06	0	;
    2	0	0	2	1.00E+06	0	;
    2	0	0	2	1.00E+06	0	;
    2	0	0	2	1.00E+06	0	;
    2	0	0	2	1.00E+06	0	;
    2	0	0	2	1.00E+06	0	;
    2	0	0	2	1.00E+06	0	;
    2	0	0	2	1.00E+06	0	;
    2	0	0	2	1.00E+06	0	;
    2	0	0	2	1.00E+06	0	;
    2	0	0	2	1.00E+06	0	;
    2	0	0	2	1.00E+06	0	;
    2	0	0	2	1.00E+06	0	;
    2	0	0	2	1.00E+06	0	;
    2	0	0	2	1.00E+06	0	;
    2	0	0	2	1.00E+06	0	;
    2	0	0	2	1.00E+06	0	;
    2	0	0	2	1.00E+06	0	;
    2	0	0	2	1.00E+06	0	;
    2	0	0	2	1.00E+06	0	;
    2	0	0	2	1.00E+06	0	;
    2	0	0	2	1.00E+06	0	;
    2	0	0	2	1.00E+06	0	;
    2	0	0	2	1.00E+06	0	;
    2	0	0	2	1.00E+06	0	;
    2	0	0	2	1.00E+06	0	;
    2	0	0	2	1.00E+06	0	;
    2	0	0	2	1.00E+06	0	;
    2	0	0	2	1.00E+06	0	;
    2	0	0	2	1.00E+06	0	;
    2	0	0	2	1.00E+06	0	;
    2	0	0	2	1.00E+06	0	;
    2	0	0	2	1.00E+06	0	;
    2	0	0	2	1.00E+06	0	;
    2	0	0	2	1.00E+06	0	;
    2	0	0	2	1.00E+06	0	;
    2	0	0	2	1.00E+06	0	;
    2	0	0	2	1.00E+06	0	;
    2	0	0	2	1.00E+06	0	;
    2	0	0	2	1.00E+06	0	;
    2	0	0	2	1.00E+06	0	;
    2	0	0	2	1.00E+06	0	;
    2	0	0	2	1.00E+06	0	;
    2	0	0	2	1.00E+06	0	;
    2	0	0	2	1.00E+06	0	;
    2	0	0	2	1.00E+06	0	;
    2	0	0	2	1.00E+06	0	;
    2	0	0	2	1.00E+06	0	;
    2	0	0	2	1.00E+06	0	;
    2	0	0	2	1.00E+06	0	;
    2	0	0	2	1.00E+06	0	;
    2	0	0	2	1.00E+06	0	;
    2	0	0	2	1.00E+06	0	;
    2	0	0	2	1.00E+06	0	;
    2	0	0	2	1.00E+06	0	;
    2	0	0	2	1.00E+06	0	;
    2	0	0	2	1.00E+06	0	;
    2	0	0	2	1.00E+06	0	;
    2	0	0	2	1.00E+06	0	;
    2	0	0	2	1.00E+06	0	;
    2	0	0	2	1.00E+06	0	;
    2	0	0	2	1.00E+06	0	;
    2	0	0	2	1.00E+06	0	;
    2	0	0	2	1.00E+06	0	;
    2	0	0	2	1.00E+06	0	;
    2	0	0	2	1.00E+06	0	;
    2	0	0	2	1.00E+06	0	;
    2	0	0	2	1.00E+06	0	;
    2	0	0	2	1.00E+06	0	;
    2	0	0	2	1.00E+06	0	;
    2	0	0	2	1.00E+06	0	;
    2	0	0	2	1.00E+06	0	;
    2	0	0	2	1.00E+06	0	;
    2	0	0	2	1.00E+06	0	;
    2	0	0	2	1.00E+06	0	;
    2	0	0	2	1.00E+06	0	;
    2	0	0	2	1.00E+06	0	;
    2	0	0	2	1.00E+06	0	;
    2	0	0	2	1.00E+06	0	;
    2	0	0	2	1.00E+06	0	;
    2	0	0	2	1.00E+06	0	;
    2	0	0	2	1.00E+06	0	;
    2	0	0	2	1.00E+06	0	;
    2	0	0	2	1.00E+06	0	;
    2	0	0	2	1.00E+06	0	;
    2	0	0	2	1.00E+06	0	;
    2	0	0	2	1.00E+06	0	;
    2	0	0	2	1.00E+06	0	;
    2	0	0	2	1.00E+06	0	;
    2	0	0	2	1.00E+06	0	;
    2	0	0	2	1.00E+06	0	;
    2	0	0	2	1.00E+06	0	;
    2	0	0	2	1.00E+06	0	;
    2	0	0	2	1.00E+06	0	;
    2	0	0	2	1.00E+06	0	;
    2	0	0	2	1.00E+06	0	;
    2	0	0	2	1.00E+06	0	;
    2	0	0	2	1.00E+06	0	;
    2	0	0	2	1.00E+06	0	;
    2	0	0	2	1.00E+06	0	;
    2	0	0	2	1.00E+06	0	;
    2	0	0	2	1.00E+06	0	;
    2	0	0	2	1.00E+06	0	;
    2	0	0	2	1.00E+06	0	;
    2	0	0	2	1.00E+06	0	;
    2	0	0	2	1.00E+06	0	;
    2	0	0	2	1.00E+06	0	;
    2	0	0	2	1.00E+06	0	;
    2	0	0	2	1.00E+06	0	;
    2	0	0	2	1.00E+06	0	;
    2	0	0	2	1.00E+06	0	;
    2	0	0	2	1.00E+06	0	;
    2	0	0	2	1.00E+06	0	;
    2	0	0	2	1.00E+06	0	;
    2	0	0	2	1.00E+06	0	;
    2	0	0	2	1.00E+06	0	;
    2	0	0	2	1.00E+06	0	;
    2	0	0	2	1.00E+06	0	;
    2	0	0	2	1.00E+06	0	;
    2	0	0	2	1.00E+06	0	;
    2	0	0	2	1.00E+06	0	;
    2	0	0	2	1.00E+06	0	;
    2	0	0	2	1.00E+06	0	;
    2	0	0	2	1.00E+06	0	;
    2	0	0	2	1.00E+06	0	;
    2	0	0	2	1.00E+06	0	;
    2	0	0	2	1.00E+06	0	;
    2	0	0	2	1.00E+06	0	;
    2	0	0	2	1.00E+06	0	;
    2	0	0	2	1.00E+06	0	;
    2	0	0	2	1.00E+06	0	;
    2	0	0	2	1.00E+06	0	;
    2	0	0	2	1.00E+06	0	;
    2	0	0	2	1.00E+06	0	;
    2	0	0	2	1.00E+06	0	;
    2	0	0	2	1.00E+06	0	;
    2	0	0	2	1.00E+06	0	;
    2	0	0	2	1.00E+06	0	;
    2	0	0	2	1.00E+06	0	;
    2	0	0	2	1.00E+06	0	;
    2	0	0	2	1.00E+06	0	;
    2	0	0	2	1.00E+06	0	;
    2	0	0	2	1.00E+06	0	;
    2	0	0	2	1.00E+06	0	;
    2	0	0	2	1.00E+06	0	;
    2	0	0	2	1.00E+06	0	;
    2	0	0	2	1.00E+06	0	;
    2	0	0	2	1.00E+06	0	;
...
];


%%-----  Reserve Data  -----%%
% reserve zones, element i, j is 1 if gen j is in zone i, 0 otherwise
%%%%%%%%%% Temporary settings %%%%%%%%%%%%%%%%
mpc.reserves.zones = zeros(num_zones, length(mpc.gen));

% reserve requirements for each zone in MW
mpc.reserves.req = zeros(num_zones, 1);

% reserve costs in $/MW for each gen that belongs to at least 1 zone
% (same order as gens, but skipping any gen that does not belong to any zone)
% mpc.reserves.cost  = [	5;	5;	21;	];
% mpc.reserves.cost  = [	5;	5;	16.25;	];
% mpc.reserves.cost  = [	0;	0;	11.25;	];
mpc.reserves.cost  = 0;

% OPTIONAL max reserve quantities for each gen that belongs to at least 1 zone
% (same order as gens, but skipping any gen that does not belong to any zone)
% mpc.reserves.qty   = 50*ones(54, 1);
mpc.reserves.qty   = 0;

end
